
 OpenBabel07142517273D

 58 61  0  0  1  0  0  0  0  0999 V2000
    0.9553   -0.6073    0.2089 C   0  0  0  0  0  0  0  0  0  0  0  0
    2.1454    0.1607    0.4206 O   0  0  0  0  0  0  0  0  0  0  0  0
    3.0634   -0.4226    1.2537 C   0  0  0  0  0  0  0  0  0  0  0  0
    3.2428   -1.8135    1.2488 C   0  0  0  0  0  0  0  0  0  0  0  0
    4.0529   -2.4408    2.1973 C   0  0  0  0  0  0  0  0  0  0  0  0
    4.7788   -1.6818    3.1192 C   0  0  0  0  0  0  0  0  0  0  0  0
    4.6755   -0.2835    3.0527 C   0  0  0  0  0  0  0  0  0  0  0  0
    3.8316    0.3583    2.1284 C   0  0  0  0  0  0  0  0  0  0  0  0
    3.8828    1.7198    2.2662 O   0  0  0  0  0  0  0  0  0  0  0  0
    3.1072    2.5418    1.4092 C   0  0  0  0  0  0  0  0  0  0  0  0
    5.6377   -2.3245    4.1975 C   0  0  3  0  0  0  0  0  0  0  0  0
    4.8265   -2.5381    5.4824 C   0  0  0  0  0  0  0  0  0  0  0  0
    5.0305   -4.0123    5.6993 C   0  0  0  0  0  0  0  0  0  0  0  0
    5.6999   -4.6219    4.7709 N   0  0  0  0  0  0  0  0  0  0  0  0
    6.0803   -3.6816    3.8644 N   0  0  0  0  0  0  0  0  0  0  0  0
    6.8622   -4.0432    2.7735 C   0  0  0  0  0  0  0  0  0  0  0  0
    6.7927   -5.3516    2.2620 C   0  0  0  0  0  0  0  0  0  0  0  0
    7.5004   -5.7398    1.1186 C   0  0  0  0  0  0  0  0  0  0  0  0
    8.3416   -4.8243    0.4839 C   0  0  0  0  0  0  0  0  0  0  0  0
    8.4396   -3.5226    0.9876 C   0  0  0  0  0  0  0  0  0  0  0  0
    7.7022   -3.1379    2.1134 C   0  0  0  0  0  0  0  0  0  0  0  0
    9.1003   -5.1516   -0.7509 C   0  0  0  0  0  0  0  0  0  0  0  0
    9.4161   -6.4557   -0.8869 O   0  0  0  0  0  0  0  0  0  0  0  0
    9.4339   -4.3031   -1.5623 O   0  0  0  0  0  0  0  0  0  0  0  0
    4.5072   -4.7153    6.8933 C   0  0  0  0  0  0  0  0  0  0  0  0
    3.7025   -4.0636    7.8354 C   0  0  0  0  0  0  0  0  0  0  0  0
    3.2468   -4.7532    8.9617 C   0  0  0  0  0  0  0  0  0  0  0  0
    3.5862   -6.0967    9.1389 C   0  0  0  0  0  0  0  0  0  0  0  0
    4.4006   -6.7522    8.2109 C   0  0  0  0  0  0  0  0  0  0  0  0
    4.8499   -6.0631    7.0851 C   0  0  0  0  0  0  0  0  0  0  0  0
    3.0375   -6.9618   10.5914 S   0  0  0  0  0  0  0  0  0  0  0  0
    1.5189   -7.7155   10.0679 C   0  0  0  0  0  0  0  0  0  0  0  0
    3.9970   -8.0155   10.8615 O   0  0  0  0  0  0  0  0  0  0  0  0
    2.7221   -5.9653   11.5960 O   0  0  0  0  0  0  0  0  0  0  0  0
    0.0991    0.0709    0.2547 H   0  0  0  0  0  0  0  0  0  0  0  0
    0.7821   -1.3813    0.9671 H   0  0  0  0  0  0  0  0  0  0  0  0
    0.9876   -1.0642   -0.7854 H   0  0  0  0  0  0  0  0  0  0  0  0
    2.7373   -2.4444    0.5217 H   0  0  0  0  0  0  0  0  0  0  0  0
    4.1049   -3.5219    2.2001 H   0  0  0  0  0  0  0  0  0  0  0  0
    5.2459    0.3362    3.7440 H   0  0  0  0  0  0  0  0  0  0  0  0
    3.3358    3.5812    1.6732 H   0  0  0  0  0  0  0  0  0  0  0  0
    2.0388    2.3941    1.5840 H   0  0  0  0  0  0  0  0  0  0  0  0
    3.3788    2.4077    0.3586 H   0  0  0  0  0  0  0  0  0  0  0  0
    6.5073   -1.6904    4.4107 H   0  0  0  0  0  0  0  0  0  0  0  0
    3.7588   -2.3203    5.3726 H   0  0  0  0  0  0  0  0  0  0  0  0
    5.2385   -1.9636    6.3171 H   0  0  0  0  0  0  0  0  0  0  0  0
    6.1226   -6.0677    2.7354 H   0  0  0  0  0  0  0  0  0  0  0  0
    7.3380   -6.7396    0.7319 H   0  0  0  0  0  0  0  0  0  0  0  0
    9.0822   -2.7927    0.4964 H   0  0  0  0  0  0  0  0  0  0  0  0
    7.8015   -2.1150    2.4655 H   0  0  0  0  0  0  0  0  0  0  0  0
    9.2453   -7.0109   -0.1060 H   0  0  0  0  0  0  0  0  0  0  0  0
    3.4262   -3.0184    7.7184 H   0  0  0  0  0  0  0  0  0  0  0  0
    2.6370   -4.2316    9.6996 H   0  0  0  0  0  0  0  0  0  0  0  0
    4.6962   -7.7921    8.3621 H   0  0  0  0  0  0  0  0  0  0  0  0
    5.4930   -6.5756    6.3710 H   0  0  0  0  0  0  0  0  0  0  0  0
    1.7255   -8.4058    9.2478 H   0  0  0  0  0  0  0  0  0  0  0  0
    0.8235   -6.9348    9.7535 H   0  0  0  0  0  0  0  0  0  0  0  0
    1.1024   -8.2622   10.9170 H   0  0  0  0  0  0  0  0  0  0  0  0
  1  2  1  0  0  0  0
  1 35  1  0  0  0  0
  1 36  1  0  0  0  0
  1 37  1  0  0  0  0
  2  3  1  0  0  0  0
  3  4  1  0  0  0  0
  3  8  2  0  0  0  0
  4  5  2  0  0  0  0
  4 38  1  0  0  0  0
  5  6  1  0  0  0  0
  5 39  1  0  0  0  0
  6  7  2  0  0  0  0
  6 11  1  0  0  0  0
  7  8  1  0  0  0  0
  7 40  1  0  0  0  0
  8  9  1  0  0  0  0
  9 10  1  0  0  0  0
 10 41  1  0  0  0  0
 10 42  1  0  0  0  0
 10 43  1  0  0  0  0
 11 12  1  0  0  0  0
 11 15  1  0  0  0  0
 11 44  1  0  0  0  0
 12 13  1  0  0  0  0
 12 45  1  0  0  0  0
 12 46  1  0  0  0  0
 13 14  2  0  0  0  0
 13 25  1  0  0  0  0
 14 15  1  0  0  0  0
 15 16  1  0  0  0  0
 16 17  1  0  0  0  0
 16 21  2  0  0  0  0
 17 18  2  0  0  0  0
 17 47  1  0  0  0  0
 18 19  1  0  0  0  0
 18 48  1  0  0  0  0
 19 20  2  0  0  0  0
 19 22  1  0  0  0  0
 20 21  1  0  0  0  0
 20 49  1  0  0  0  0
 21 50  1  0  0  0  0
 22 23  1  0  0  0  0
 22 24  2  0  0  0  0
 23 51  1  0  0  0  0
 25 26  1  0  0  0  0
 25 30  2  0  0  0  0
 26 27  2  0  0  0  0
 26 52  1  0  0  0  0
 27 28  1  0  0  0  0
 27 53  1  0  0  0  0
 28 29  2  0  0  0  0
 28 31  1  0  0  0  0
 29 30  1  0  0  0  0
 29 54  1  0  0  0  0
 30 55  1  0  0  0  0
 31 32  1  0  0  0  0
 31 33  2  0  0  0  0
 31 34  2  0  0  0  0
 32 56  1  0  0  0  0
 32 57  1  0  0  0  0
 32 58  1  0  0  0  0
M  END
$$$$
