
 OpenBabel07142517313D

 40 42  0  0  0  0  0  0  0  0999 V2000
    4.3691   -0.0258   -1.3337 C   0  0  0  0  0  0  0  0  0  0  0  0
    3.0582   -0.0101   -0.1382 S   0  0  0  0  0  0  0  0  0  0  0  0
    1.7973    0.1475   -0.8438 O   0  0  0  0  0  0  0  0  0  0  0  0
    3.2646   -1.1090    0.7796 O   0  0  0  0  0  0  0  0  0  0  0  0
    3.3555    1.4953    0.7532 C   0  0  0  0  0  0  0  0  0  0  0  0
    2.7594    2.6869    0.3316 C   0  0  0  0  0  0  0  0  0  0  0  0
    3.0167    3.8715    1.0262 C   0  0  0  0  0  0  0  0  0  0  0  0
    3.8687    3.8549    2.1395 C   0  0  0  0  0  0  0  0  0  0  0  0
    4.4167    2.6395    2.5809 C   0  0  0  0  0  0  0  0  0  0  0  0
    4.1713    1.4603    1.8821 C   0  0  0  0  0  0  0  0  0  0  0  0
    4.1921    5.0696    2.8089 N   0  0  0  0  0  0  0  0  0  0  0  0
    3.3488    6.1538    2.9286 C   0  0  0  0  0  0  0  0  0  0  0  0
    3.9577    7.0377    3.7987 C   0  0  0  0  0  0  0  0  0  0  0  0
    5.2076    6.5501    4.1346 N   0  0  0  0  0  0  0  0  0  0  0  0
    5.3757    5.4188    3.4687 C   0  0  0  0  0  0  0  0  0  0  0  0
    6.6737    4.7256    3.3861 C   0  0  0  0  0  0  0  0  0  0  0  0
    7.5633    4.7827    4.4690 C   0  0  0  0  0  0  0  0  0  0  0  0
    8.8018    4.1333    4.4161 C   0  0  0  0  0  0  0  0  0  0  0  0
    9.1683    3.4078    3.2810 C   0  0  0  0  0  0  0  0  0  0  0  0
    8.2967    3.3618    2.1903 C   0  0  0  0  0  0  0  0  0  0  0  0
    7.0753    4.0414    2.2290 C   0  0  0  0  0  0  0  0  0  0  0  0
    8.6455    2.5884    0.9923 N   0  3  0  0  0  0  0  0  0  0  0  0
    9.7571    2.0480    0.9591 O   0  5  0  0  0  0  0  0  0  0  0  0
    7.7952    2.5061    0.0902 O   0  0  0  0  0  0  0  0  0  0  0  0
    3.4301    8.3343    4.3418 C   0  0  0  0  0  0  0  0  0  0  0  0
    2.1789    8.6031    3.8771 F   0  0  0  0  0  0  0  0  0  0  0  0
    3.3457    8.3280    5.6973 F   0  0  0  0  0  0  0  0  0  0  0  0
    4.2071    9.3921    3.9924 F   0  0  0  0  0  0  0  0  0  0  0  0
    4.2554   -0.9230   -1.9431 H   0  0  0  0  0  0  0  0  0  0  0  0
    5.3264   -0.0499   -0.8073 H   0  0  0  0  0  0  0  0  0  0  0  0
    4.2907    0.8644   -1.9568 H   0  0  0  0  0  0  0  0  0  0  0  0
    2.1079    2.7050   -0.5403 H   0  0  0  0  0  0  0  0  0  0  0  0
    2.5840    4.7953    0.6473 H   0  0  0  0  0  0  0  0  0  0  0  0
    5.0423    2.5807    3.4691 H   0  0  0  0  0  0  0  0  0  0  0  0
    4.6195    0.5295    2.2250 H   0  0  0  0  0  0  0  0  0  0  0  0
    2.3667    6.1803    2.4767 H   0  0  0  0  0  0  0  0  0  0  0  0
    7.2948    5.3462    5.3630 H   0  0  0  0  0  0  0  0  0  0  0  0
    9.4813    4.1997    5.2638 H   0  0  0  0  0  0  0  0  0  0  0  0
   10.1315    2.9021    3.2588 H   0  0  0  0  0  0  0  0  0  0  0  0
    6.4281    4.0177    1.3563 H   0  0  0  0  0  0  0  0  0  0  0  0
  1  2  1  0  0  0  0
  1 29  1  0  0  0  0
  1 30  1  0  0  0  0
  1 31  1  0  0  0  0
  2  3  2  0  0  0  0
  2  4  2  0  0  0  0
  2  5  1  0  0  0  0
  5  6  1  0  0  0  0
  5 10  2  0  0  0  0
  6  7  2  0  0  0  0
  6 32  1  0  0  0  0
  7  8  1  0  0  0  0
  7 33  1  0  0  0  0
  8  9  2  0  0  0  0
  8 11  1  0  0  0  0
  9 10  1  0  0  0  0
  9 34  1  0  0  0  0
 10 35  1  0  0  0  0
 11 12  1  0  0  0  0
 11 15  1  0  0  0  0
 12 13  2  0  0  0  0
 12 36  1  0  0  0  0
 13 14  1  0  0  0  0
 13 25  1  0  0  0  0
 14 15  2  0  0  0  0
 15 16  1  0  0  0  0
 16 17  1  0  0  0  0
 16 21  2  0  0  0  0
 17 18  2  0  0  0  0
 17 37  1  0  0  0  0
 18 19  1  0  0  0  0
 18 38  1  0  0  0  0
 19 20  2  0  0  0  0
 19 39  1  0  0  0  0
 20 21  1  0  0  0  0
 20 22  1  0  0  0  0
 21 40  1  0  0  0  0
 22 23  1  0  0  0  0
 22 24  2  0  0  0  0
 25 26  1  0  0  0  0
 25 27  1  0  0  0  0
 25 28  1  0  0  0  0
M  CHG  2  22   1  23  -1
M  END
$$$$
