
 OpenBabel07142516183D

 46 49  0  0  0  0  0  0  0  0999 V2000
    5.2463   -0.8684   -0.0931 N   0  0  0  0  0  0  0  0  0  0  0  0
    3.6401   -0.3672   -0.0243 S   0  0  0  0  0  0  0  0  0  0  0  0
    3.3501    0.2539   -1.2985 O   0  0  0  0  0  0  0  0  0  0  0  0
    2.8947   -1.5023    0.4700 O   0  0  0  0  0  0  0  0  0  0  0  0
    3.7245    0.8673    1.2336 C   0  0  0  0  0  0  0  0  0  0  0  0
    3.9623    2.2033    0.9019 C   0  0  0  0  0  0  0  0  0  0  0  0
    4.0768    3.1517    1.9237 C   0  0  0  0  0  0  0  0  0  0  0  0
    3.9411    2.7671    3.2640 C   0  0  0  0  0  0  0  0  0  0  0  0
    3.6616    1.4299    3.5783 C   0  0  0  0  0  0  0  0  0  0  0  0
    3.5488    0.4798    2.5656 C   0  0  0  0  0  0  0  0  0  0  0  0
    4.1098    3.7374    4.3542 C   0  0  0  0  0  0  0  0  0  0  0  0
    5.4661    3.9779    4.9061 C   0  0  0  0  0  0  0  0  0  0  0  0
    5.7885    4.8719    5.7771 N   0  0  0  0  0  0  0  0  0  0  0  0
    4.7569    5.6319    6.2967 N   0  0  0  0  0  0  0  0  0  0  0  0
    5.0830    6.5312    7.4008 C   0  0  0  0  0  0  0  0  0  0  0  0
    6.1893    7.5009    7.0961 C   0  0  0  0  0  0  0  0  0  0  0  0
    6.0947    8.5879    6.0496 C   0  0  0  0  0  0  0  0  0  0  0  0
    5.9991    8.9475    7.5035 C   0  0  0  0  0  0  0  0  0  0  0  0
    3.4162    5.2814    6.1186 C   0  0  0  0  0  0  0  0  0  0  0  0
    2.5096    5.6442    6.8649 O   0  0  0  0  0  0  0  0  0  0  0  0
    3.1136    4.4333    4.9266 C   0  0  0  0  0  0  0  0  0  0  0  0
    1.7269    4.3837    4.4099 C   0  0  0  0  0  0  0  0  0  0  0  0
    0.7672    3.5489    4.9852 C   0  0  0  0  0  0  0  0  0  0  0  0
   -0.5356    3.5240    4.4761 C   0  0  0  0  0  0  0  0  0  0  0  0
   -0.8843    4.3373    3.3982 C   0  0  0  0  0  0  0  0  0  0  0  0
    0.0650    5.1831    2.8262 C   0  0  0  0  0  0  0  0  0  0  0  0
    1.3654    5.2105    3.3373 C   0  0  0  0  0  0  0  0  0  0  0  0
    5.5596   -0.8764   -1.0648 H   0  0  0  0  0  0  0  0  0  0  0  0
    5.3626   -1.7600    0.3873 H   0  0  0  0  0  0  0  0  0  0  0  0
    4.0753    2.5041   -0.1371 H   0  0  0  0  0  0  0  0  0  0  0  0
    4.2739    4.1890    1.6615 H   0  0  0  0  0  0  0  0  0  0  0  0
    3.5366    1.1159    4.6125 H   0  0  0  0  0  0  0  0  0  0  0  0
    3.3397   -0.5582    2.8202 H   0  0  0  0  0  0  0  0  0  0  0  0
    6.2600    3.3263    4.5080 H   0  0  0  0  0  0  0  0  0  0  0  0
    5.3686    5.9049    8.2539 H   0  0  0  0  0  0  0  0  0  0  0  0
    4.1836    7.0807    7.6995 H   0  0  0  0  0  0  0  0  0  0  0  0
    7.1653    7.0519    7.2464 H   0  0  0  0  0  0  0  0  0  0  0  0
    5.2006    8.6501    5.4421 H   0  0  0  0  0  0  0  0  0  0  0  0
    7.0032    8.8788    5.5319 H   0  0  0  0  0  0  0  0  0  0  0  0
    5.0290    9.2743    7.8651 H   0  0  0  0  0  0  0  0  0  0  0  0
    6.8327    9.4605    7.9683 H   0  0  0  0  0  0  0  0  0  0  0  0
    1.0155    2.9220    5.8371 H   0  0  0  0  0  0  0  0  0  0  0  0
   -1.2824    2.8739    4.9264 H   0  0  0  0  0  0  0  0  0  0  0  0
   -1.8987    4.3177    3.0070 H   0  0  0  0  0  0  0  0  0  0  0  0
   -0.2090    5.8264    1.9960 H   0  0  0  0  0  0  0  0  0  0  0  0
    2.0901    5.8878    2.8892 H   0  0  0  0  0  0  0  0  0  0  0  0
  1  2  1  0  0  0  0
  1 28  1  0  0  0  0
  1 29  1  0  0  0  0
  2  3  2  0  0  0  0
  2  4  2  0  0  0  0
  2  5  1  0  0  0  0
  5  6  1  0  0  0  0
  5 10  2  0  0  0  0
  6  7  2  0  0  0  0
  6 30  1  0  0  0  0
  7  8  1  0  0  0  0
  7 31  1  0  0  0  0
  8  9  2  0  0  0  0
  8 11  1  0  0  0  0
  9 10  1  0  0  0  0
  9 32  1  0  0  0  0
 10 33  1  0  0  0  0
 11 12  1  0  0  0  0
 11 21  2  0  0  0  0
 12 13  2  0  0  0  0
 12 34  1  0  0  0  0
 13 14  1  0  0  0  0
 14 15  1  0  0  0  0
 14 19  1  0  0  0  0
 15 16  1  0  0  0  0
 15 35  1  0  0  0  0
 15 36  1  0  0  0  0
 16 17  1  0  0  0  0
 16 18  1  0  0  0  0
 16 37  1  0  0  0  0
 17 18  1  0  0  0  0
 17 38  1  0  0  0  0
 17 39  1  0  0  0  0
 18 40  1  0  0  0  0
 18 41  1  0  0  0  0
 19 20  2  0  0  0  0
 19 21  1  0  0  0  0
 21 22  1  0  0  0  0
 22 23  1  0  0  0  0
 22 27  2  0  0  0  0
 23 24  2  0  0  0  0
 23 42  1  0  0  0  0
 24 25  1  0  0  0  0
 24 43  1  0  0  0  0
 25 26  2  0  0  0  0
 25 44  1  0  0  0  0
 26 27  1  0  0  0  0
 26 45  1  0  0  0  0
 27 46  1  0  0  0  0
M  END
$$$$
