
 OpenBabel07142516523D

 56 59  0  0  0  0  0  0  0  0999 V2000
    3.5100    0.2060   -0.8308 N   0  0  0  0  0  0  0  0  0  0  0  0
    2.1756   -0.0798    0.1505 S   0  0  0  0  0  0  0  0  0  0  0  0
    1.1096    0.7434   -0.3695 O   0  0  0  0  0  0  0  0  0  0  0  0
    2.0679   -1.5163    0.2542 O   0  0  0  0  0  0  0  0  0  0  0  0
    2.7218    0.5748    1.7015 C   0  0  0  0  0  0  0  0  0  0  0  0
    2.4525    1.9003    2.0548 C   0  0  0  0  0  0  0  0  0  0  0  0
    2.8995    2.3915    3.2888 C   0  0  0  0  0  0  0  0  0  0  0  0
    3.6335    1.5598    4.1499 C   0  0  0  0  0  0  0  0  0  0  0  0
    3.8388    0.2146    3.8103 C   0  0  0  0  0  0  0  0  0  0  0  0
    3.3904   -0.2772    2.5845 C   0  0  0  0  0  0  0  0  0  0  0  0
    4.1714    2.0863    5.3630 N   0  0  0  0  0  0  0  0  0  0  0  0
    3.5189    3.0897    6.0126 N   0  0  0  0  0  0  0  0  0  0  0  0
    4.0287    3.0718    7.2555 C   0  0  0  0  0  0  0  0  0  0  0  0
    5.1491    2.2138    7.3255 C   0  0  0  0  0  0  0  0  0  0  0  0
    5.3142    1.6797    6.0626 C   0  0  0  0  0  0  0  0  0  0  0  0
    6.4442    0.8958    5.5429 C   0  0  0  0  0  0  0  0  0  0  0  0
    7.1793    0.0658    6.4022 C   0  0  0  0  0  0  0  0  0  0  0  0
    8.2532   -0.6911    5.9230 C   0  0  0  0  0  0  0  0  0  0  0  0
    8.5932   -0.6363    4.5743 C   0  0  0  0  0  0  0  0  0  0  0  0
    9.8878   -1.5950    3.9752 Cl  0  0  0  0  0  0  0  0  0  0  0  0
    7.8920    0.1959    3.7089 C   0  0  0  0  0  0  0  0  0  0  0  0
    6.8456    0.9817    4.1995 C   0  0  0  0  0  0  0  0  0  0  0  0
    3.4943    3.8439    8.3841 C   0  0  0  0  0  0  0  0  0  0  0  0
    3.6967    3.5105    9.5490 O   0  0  0  0  0  0  0  0  0  0  0  0
    2.7945    4.9539    8.0161 O   0  0  0  0  0  0  0  0  0  0  0  0
    2.1765    5.6577    9.1039 C   0  0  0  0  0  0  0  0  0  0  0  0
    3.1943    6.4752    9.9302 C   0  0  0  0  0  0  0  0  0  0  0  0
    2.5973    7.1974   11.0695 N   0  0  0  0  0  0  0  0  0  0  0  0
    3.6035    8.0355   11.7674 C   0  0  0  0  0  0  0  0  0  0  0  0
    4.5765    7.2607   12.6812 C   0  0  0  0  0  0  0  0  0  0  0  0
    3.8920    6.3969   13.5973 O   0  0  0  0  0  0  0  0  0  0  0  0
    3.0159    5.5059   12.8983 C   0  0  0  0  0  0  0  0  0  0  0  0
    1.9883    6.3015   12.0802 C   0  0  0  0  0  0  0  0  0  0  0  0
    3.2086    0.6898   -1.6775 H   0  0  0  0  0  0  0  0  0  0  0  0
    3.9997   -0.6697   -1.0170 H   0  0  0  0  0  0  0  0  0  0  0  0
    1.9116    2.5576    1.3767 H   0  0  0  0  0  0  0  0  0  0  0  0
    2.7097    3.4321    3.5485 H   0  0  0  0  0  0  0  0  0  0  0  0
    4.3353   -0.4765    4.4886 H   0  0  0  0  0  0  0  0  0  0  0  0
    3.5690   -1.3179    2.3261 H   0  0  0  0  0  0  0  0  0  0  0  0
    5.7944    2.0730    8.1820 H   0  0  0  0  0  0  0  0  0  0  0  0
    6.9260   -0.0066    7.4580 H   0  0  0  0  0  0  0  0  0  0  0  0
    8.8140   -1.3227    6.6067 H   0  0  0  0  0  0  0  0  0  0  0  0
    8.1510    0.2442    2.6547 H   0  0  0  0  0  0  0  0  0  0  0  0
    6.3417    1.6495    3.5037 H   0  0  0  0  0  0  0  0  0  0  0  0
    1.6286    4.9297    9.7138 H   0  0  0  0  0  0  0  0  0  0  0  0
    1.4300    6.3295    8.6704 H   0  0  0  0  0  0  0  0  0  0  0  0
    3.6421    7.2039    9.2412 H   0  0  0  0  0  0  0  0  0  0  0  0
    4.0287    5.8427   10.2495 H   0  0  0  0  0  0  0  0  0  0  0  0
    3.0474    8.7473   12.3917 H   0  0  0  0  0  0  0  0  0  0  0  0
    4.1687    8.6423   11.0502 H   0  0  0  0  0  0  0  0  0  0  0  0
    5.1524    7.9726   13.2826 H   0  0  0  0  0  0  0  0  0  0  0  0
    5.2916    6.6691   12.0994 H   0  0  0  0  0  0  0  0  0  0  0  0
    2.4989    4.8957   13.6454 H   0  0  0  0  0  0  0  0  0  0  0  0
    3.6061    4.8244   12.2765 H   0  0  0  0  0  0  0  0  0  0  0  0
    1.4165    6.9364   12.7704 H   0  0  0  0  0  0  0  0  0  0  0  0
    1.2526    5.6276   11.6336 H   0  0  0  0  0  0  0  0  0  0  0  0
  1  2  1  0  0  0  0
  1 34  1  0  0  0  0
  1 35  1  0  0  0  0
  2  3  2  0  0  0  0
  2  4  2  0  0  0  0
  2  5  1  0  0  0  0
  5  6  1  0  0  0  0
  5 10  2  0  0  0  0
  6  7  2  0  0  0  0
  6 36  1  0  0  0  0
  7  8  1  0  0  0  0
  7 37  1  0  0  0  0
  8  9  2  0  0  0  0
  8 11  1  0  0  0  0
  9 10  1  0  0  0  0
  9 38  1  0  0  0  0
 10 39  1  0  0  0  0
 11 12  1  0  0  0  0
 11 15  1  0  0  0  0
 12 13  2  0  0  0  0
 13 14  1  0  0  0  0
 13 23  1  0  0  0  0
 14 15  2  0  0  0  0
 14 40  1  0  0  0  0
 15 16  1  0  0  0  0
 16 17  1  0  0  0  0
 16 22  2  0  0  0  0
 17 18  2  0  0  0  0
 17 41  1  0  0  0  0
 18 19  1  0  0  0  0
 18 42  1  0  0  0  0
 19 20  1  0  0  0  0
 19 21  2  0  0  0  0
 21 22  1  0  0  0  0
 21 43  1  0  0  0  0
 22 44  1  0  0  0  0
 23 24  2  0  0  0  0
 23 25  1  0  0  0  0
 25 26  1  0  0  0  0
 26 27  1  0  0  0  0
 26 45  1  0  0  0  0
 26 46  1  0  0  0  0
 27 28  1  0  0  0  0
 27 47  1  0  0  0  0
 27 48  1  0  0  0  0
 28 29  1  0  0  0  0
 28 33  1  0  0  0  0
 29 30  1  0  0  0  0
 29 49  1  0  0  0  0
 29 50  1  0  0  0  0
 30 31  1  0  0  0  0
 30 51  1  0  0  0  0
 30 52  1  0  0  0  0
 31 32  1  0  0  0  0
 32 33  1  0  0  0  0
 32 53  1  0  0  0  0
 32 54  1  0  0  0  0
 33 55  1  0  0  0  0
 33 56  1  0  0  0  0
M  END
$$$$
