
 OpenBabel07142517393D

 38 40  0  0  0  0  0  0  0  0999 V2000
    4.1042    0.2975   -0.9390 C   0  0  0  0  0  0  0  0  0  0  0  0
    2.6701   -0.0084    0.0611 S   0  0  0  0  0  0  0  0  0  0  0  0
    1.5491    0.6933   -0.5279 O   0  0  0  0  0  0  0  0  0  0  0  0
    2.6064   -1.4335    0.3312 O   0  0  0  0  0  0  0  0  0  0  0  0
    3.0690    0.8045    1.5916 C   0  0  0  0  0  0  0  0  0  0  0  0
    2.7005    2.1380    1.7908 C   0  0  0  0  0  0  0  0  0  0  0  0
    3.0437    2.7765    2.9866 C   0  0  0  0  0  0  0  0  0  0  0  0
    3.7692    2.0835    3.9678 C   0  0  0  0  0  0  0  0  0  0  0  0
    4.0638    0.7241    3.7843 C   0  0  0  0  0  0  0  0  0  0  0  0
    3.7227    0.0851    2.5928 C   0  0  0  0  0  0  0  0  0  0  0  0
    4.2025    2.7729    5.1385 N   0  0  0  0  0  0  0  0  0  0  0  0
    3.4415    3.7860    5.6285 N   0  0  0  0  0  0  0  0  0  0  0  0
    3.9193    4.0184    6.8633 C   0  0  0  0  0  0  0  0  0  0  0  0
    5.1247    3.3033    7.0688 C   0  0  0  0  0  0  0  0  0  0  0  0
    5.3409    2.5558    5.9248 C   0  0  0  0  0  0  0  0  0  0  0  0
    6.5023    1.7143    5.5885 C   0  0  0  0  0  0  0  0  0  0  0  0
    6.9738    1.5937    4.2677 C   0  0  0  0  0  0  0  0  0  0  0  0
    7.9842    0.6833    3.9437 C   0  0  0  0  0  0  0  0  0  0  0  0
    8.5858   -0.0555    4.9524 C   0  0  0  0  0  0  0  0  0  0  0  0
    9.5427   -0.9388    4.6394 F   0  0  0  0  0  0  0  0  0  0  0  0
    8.1955    0.1200    6.2727 C   0  0  0  0  0  0  0  0  0  0  0  0
    8.7990   -0.5688    7.2506 F   0  0  0  0  0  0  0  0  0  0  0  0
    7.1593    0.9937    6.5964 C   0  0  0  0  0  0  0  0  0  0  0  0
    3.2552    4.9315    7.8617 C   0  0  0  0  0  0  0  0  0  0  0  0
    2.0922    5.4765    7.4215 F   0  0  0  0  0  0  0  0  0  0  0  0
    2.9629    4.2674    9.0136 F   0  0  0  0  0  0  0  0  0  0  0  0
    4.0678    5.9638    8.2135 F   0  0  0  0  0  0  0  0  0  0  0  0
    3.9493   -0.1814   -1.9083 H   0  0  0  0  0  0  0  0  0  0  0  0
    4.9802   -0.1328   -0.4500 H   0  0  0  0  0  0  0  0  0  0  0  0
    4.2238    1.3745   -1.0724 H   0  0  0  0  0  0  0  0  0  0  0  0
    2.1557    2.6876    1.0253 H   0  0  0  0  0  0  0  0  0  0  0  0
    2.7767    3.8238    3.1242 H   0  0  0  0  0  0  0  0  0  0  0  0
    4.5429    0.1355    4.5632 H   0  0  0  0  0  0  0  0  0  0  0  0
    3.9669   -0.9672    2.4592 H   0  0  0  0  0  0  0  0  0  0  0  0
    5.7614    3.3559    7.9407 H   0  0  0  0  0  0  0  0  0  0  0  0
    6.5331    2.1773    3.4611 H   0  0  0  0  0  0  0  0  0  0  0  0
    8.2942    0.5414    2.9130 H   0  0  0  0  0  0  0  0  0  0  0  0
    6.8663    1.0782    7.6388 H   0  0  0  0  0  0  0  0  0  0  0  0
  1  2  1  0  0  0  0
  1 28  1  0  0  0  0
  1 29  1  0  0  0  0
  1 30  1  0  0  0  0
  2  3  2  0  0  0  0
  2  4  2  0  0  0  0
  2  5  1  0  0  0  0
  5  6  1  0  0  0  0
  5 10  2  0  0  0  0
  6  7  2  0  0  0  0
  6 31  1  0  0  0  0
  7  8  1  0  0  0  0
  7 32  1  0  0  0  0
  8  9  2  0  0  0  0
  8 11  1  0  0  0  0
  9 10  1  0  0  0  0
  9 33  1  0  0  0  0
 10 34  1  0  0  0  0
 11 12  1  0  0  0  0
 11 15  1  0  0  0  0
 12 13  2  0  0  0  0
 13 14  1  0  0  0  0
 13 24  1  0  0  0  0
 14 15  2  0  0  0  0
 14 35  1  0  0  0  0
 15 16  1  0  0  0  0
 16 17  1  0  0  0  0
 16 23  2  0  0  0  0
 17 18  2  0  0  0  0
 17 36  1  0  0  0  0
 18 19  1  0  0  0  0
 18 37  1  0  0  0  0
 19 20  1  0  0  0  0
 19 21  2  0  0  0  0
 21 22  1  0  0  0  0
 21 23  1  0  0  0  0
 23 38  1  0  0  0  0
 24 25  1  0  0  0  0
 24 26  1  0  0  0  0
 24 27  1  0  0  0  0
M  END
$$$$
