
 OpenBabel07142516143D

 58 60  0  0  1  0  0  0  0  0999 V2000
    0.9105   -0.0096    0.0688 C   0  0  0  0  0  0  0  0  0  0  0  0
    2.4067   -0.0502    0.0557 C   0  0  0  0  0  0  0  0  0  0  0  0
    3.2718    1.0407    0.0720 C   0  0  0  0  0  0  0  0  0  0  0  0
    4.5807    0.5077    0.1401 C   0  0  0  0  0  0  0  0  0  0  0  0
    4.5291   -0.8773    0.1179 C   0  0  0  0  0  0  0  0  0  0  0  0
    5.6975   -1.7893    0.0361 C   0  0  0  0  0  0  0  0  0  0  0  0
    6.8862   -1.4795    0.7197 C   0  0  0  0  0  0  0  0  0  0  0  0
    7.9770   -2.3582    0.7135 C   0  0  0  0  0  0  0  0  0  0  0  0
    7.8696   -3.5784    0.0475 C   0  0  0  0  0  0  0  0  0  0  0  0
    6.7245   -3.8874   -0.6805 C   0  0  0  0  0  0  0  0  0  0  0  0
    5.6712   -2.9716   -0.7226 C   0  0  0  0  0  0  0  0  0  0  0  0
    9.2278   -4.7244    0.0584 S   0  0  0  0  0  0  0  0  0  0  0  0
    8.9233   -5.7122    1.5025 C   0  0  0  0  0  0  0  0  0  0  0  0
    9.0932   -5.5784   -1.1022 O   0  0  0  0  0  0  0  0  0  0  0  0
   10.4381   -3.9616    0.2876 O   0  0  0  0  0  0  0  0  0  0  0  0
    3.1642   -1.2318    0.1099 N   0  0  0  0  0  0  0  0  0  0  0  0
    2.6390   -2.5709    0.1463 C   0  0  0  0  0  0  0  0  0  0  0  0
    3.2558   -3.5528    0.9405 C   0  0  0  0  0  0  0  0  0  0  0  0
    2.8877   -4.8959    0.8177 C   0  0  0  0  0  0  0  0  0  0  0  0
    1.8542   -5.2481   -0.0390 C   0  0  0  0  0  0  0  0  0  0  0  0
    1.5172   -6.5370   -0.1747 F   0  0  0  0  0  0  0  0  0  0  0  0
    1.1819   -4.2829   -0.7762 C   0  0  0  0  0  0  0  0  0  0  0  0
    1.5846   -2.9461   -0.6994 C   0  0  0  0  0  0  0  0  0  0  0  0
    2.8941    2.5067    0.0496 C   0  0  3  0  0  0  0  0  0  0  0  0
    2.7209    2.9492    1.4551 N   0  0  0  0  0  0  0  0  0  0  0  0
    3.9262    3.4110   -0.6859 C   0  0  0  0  0  0  0  0  0  0  0  0
    4.5425    3.0637   -1.6884 O   0  0  0  0  0  0  0  0  0  0  0  0
    4.0512    4.6746   -0.1397 N   0  0  0  0  0  0  0  0  0  0  0  0
    4.9401    5.6783   -0.6912 C   0  0  0  0  0  0  0  0  0  0  0  0
    5.9538    6.1805    0.3285 C   0  0  0  0  0  0  0  0  0  0  0  0
    6.7885    5.0555    0.9253 C   0  0  0  0  0  0  0  0  0  0  0  0
    7.7340    5.5929    1.8423 O   0  0  0  0  0  0  0  0  0  0  0  0
    0.5392    1.0103    0.2090 H   0  0  0  0  0  0  0  0  0  0  0  0
    0.5060   -0.6110    0.8881 H   0  0  0  0  0  0  0  0  0  0  0  0
    0.4932   -0.3477   -0.8825 H   0  0  0  0  0  0  0  0  0  0  0  0
    5.4973    1.0896    0.1368 H   0  0  0  0  0  0  0  0  0  0  0  0
    6.9786   -0.5437    1.2686 H   0  0  0  0  0  0  0  0  0  0  0  0
    8.8939   -2.0805    1.2293 H   0  0  0  0  0  0  0  0  0  0  0  0
    6.6373   -4.8269   -1.2222 H   0  0  0  0  0  0  0  0  0  0  0  0
    4.8080   -3.2187   -1.3359 H   0  0  0  0  0  0  0  0  0  0  0  0
    7.9613   -6.2169    1.3969 H   0  0  0  0  0  0  0  0  0  0  0  0
    8.9329   -5.0717    2.3852 H   0  0  0  0  0  0  0  0  0  0  0  0
    9.7230   -6.4549    1.5767 H   0  0  0  0  0  0  0  0  0  0  0  0
    4.0614   -3.2980    1.6257 H   0  0  0  0  0  0  0  0  0  0  0  0
    3.4182   -5.6689    1.3646 H   0  0  0  0  0  0  0  0  0  0  0  0
    0.3777   -4.5809   -1.4422 H   0  0  0  0  0  0  0  0  0  0  0  0
    1.1138   -2.2437   -1.3777 H   0  0  0  0  0  0  0  0  0  0  0  0
    1.9450    2.6500   -0.4818 H   0  0  0  0  0  0  0  0  0  0  0  0
    3.5818    2.7192    1.9553 H   0  0  0  0  0  0  0  0  0  0  0  0
    2.0115    2.3467    1.8743 H   0  0  0  0  0  0  0  0  0  0  0  0
    3.4864    4.8692    0.6834 H   0  0  0  0  0  0  0  0  0  0  0  0
    4.3127    6.5103   -1.0309 H   0  0  0  0  0  0  0  0  0  0  0  0
    5.4612    5.2819   -1.5683 H   0  0  0  0  0  0  0  0  0  0  0  0
    5.4444    6.7209    1.1356 H   0  0  0  0  0  0  0  0  0  0  0  0
    6.6155    6.9136   -0.1498 H   0  0  0  0  0  0  0  0  0  0  0  0
    7.3258    4.4966    0.1526 H   0  0  0  0  0  0  0  0  0  0  0  0
    6.1599    4.3534    1.4816 H   0  0  0  0  0  0  0  0  0  0  0  0
    8.3540    6.1427    1.3329 H   0  0  0  0  0  0  0  0  0  0  0  0
  1  2  1  0  0  0  0
  1 33  1  0  0  0  0
  1 34  1  0  0  0  0
  1 35  1  0  0  0  0
  2  3  2  0  0  0  0
  2 16  1  0  0  0  0
  3  4  1  0  0  0  0
  3 24  1  0  0  0  0
  4  5  2  0  0  0  0
  4 36  1  0  0  0  0
  5  6  1  0  0  0  0
  5 16  1  0  0  0  0
  6  7  1  0  0  0  0
  6 11  2  0  0  0  0
  7  8  2  0  0  0  0
  7 37  1  0  0  0  0
  8  9  1  0  0  0  0
  8 38  1  0  0  0  0
  9 10  2  0  0  0  0
  9 12  1  0  0  0  0
 10 11  1  0  0  0  0
 10 39  1  0  0  0  0
 11 40  1  0  0  0  0
 12 13  1  0  0  0  0
 12 14  2  0  0  0  0
 12 15  2  0  0  0  0
 13 41  1  0  0  0  0
 13 42  1  0  0  0  0
 13 43  1  0  0  0  0
 16 17  1  0  0  0  0
 17 18  1  0  0  0  0
 17 23  2  0  0  0  0
 18 19  2  0  0  0  0
 18 44  1  0  0  0  0
 19 20  1  0  0  0  0
 19 45  1  0  0  0  0
 20 21  1  0  0  0  0
 20 22  2  0  0  0  0
 22 23  1  0  0  0  0
 22 46  1  0  0  0  0
 23 47  1  0  0  0  0
 24 25  1  0  0  0  0
 24 26  1  0  0  0  0
 24 48  1  0  0  0  0
 25 49  1  0  0  0  0
 25 50  1  0  0  0  0
 26 27  2  0  0  0  0
 26 28  1  0  0  0  0
 28 29  1  0  0  0  0
 28 51  1  0  0  0  0
 29 30  1  0  0  0  0
 29 52  1  0  0  0  0
 29 53  1  0  0  0  0
 30 31  1  0  0  0  0
 30 54  1  0  0  0  0
 30 55  1  0  0  0  0
 31 32  1  0  0  0  0
 31 56  1  0  0  0  0
 31 57  1  0  0  0  0
 32 58  1  0  0  0  0
M  END
$$$$
