
 OpenBabel07142517273D

 63 66  0  0  0  0  0  0  0  0999 V2000
    0.8380    0.0234   -0.0070 C   0  0  0  0  0  0  0  0  0  0  0  0
    2.3384    0.0654   -0.0844 C   0  0  0  0  0  0  0  0  0  0  0  0
    3.1594    1.1943   -0.0993 C   0  0  0  0  0  0  0  0  0  0  0  0
    4.4961    0.6957   -0.0858 C   0  0  0  0  0  0  0  0  0  0  0  0
    4.4888   -0.6961   -0.0896 C   0  0  0  0  0  0  0  0  0  0  0  0
    5.6736   -1.5932   -0.1856 C   0  0  0  0  0  0  0  0  0  0  0  0
    6.8652   -1.2908    0.4966 C   0  0  0  0  0  0  0  0  0  0  0  0
    7.9499   -2.1839    0.4918 C   0  0  0  0  0  0  0  0  0  0  0  0
    7.8330   -3.4084   -0.1644 C   0  0  0  0  0  0  0  0  0  0  0  0
    6.6875   -3.7036   -0.8972 C   0  0  0  0  0  0  0  0  0  0  0  0
    5.6443   -2.7742   -0.9443 C   0  0  0  0  0  0  0  0  0  0  0  0
    9.1743   -4.5840   -0.1540 S   0  0  0  0  0  0  0  0  0  0  0  0
    8.8491   -5.5693    1.2919 C   0  0  0  0  0  0  0  0  0  0  0  0
    9.0290   -5.4283   -1.3226 O   0  0  0  0  0  0  0  0  0  0  0  0
   10.3950   -3.8359    0.0840 O   0  0  0  0  0  0  0  0  0  0  0  0
    3.1337   -1.0915   -0.0617 N   0  0  0  0  0  0  0  0  0  0  0  0
    2.6386   -2.4434   -0.0230 C   0  0  0  0  0  0  0  0  0  0  0  0
    3.2894   -3.4254    0.7416 C   0  0  0  0  0  0  0  0  0  0  0  0
    2.9201   -4.7701    0.6274 C   0  0  0  0  0  0  0  0  0  0  0  0
    1.8474   -5.1238   -0.1791 C   0  0  0  0  0  0  0  0  0  0  0  0
    1.5007   -6.4115   -0.2937 F   0  0  0  0  0  0  0  0  0  0  0  0
    1.1438   -4.1600   -0.8857 C   0  0  0  0  0  0  0  0  0  0  0  0
    1.5556   -2.8255   -0.8305 C   0  0  0  0  0  0  0  0  0  0  0  0
    2.6841    2.5942   -0.1125 C   0  0  0  0  0  0  0  0  0  0  0  0
    1.4858    2.8886   -0.1390 O   0  0  0  0  0  0  0  0  0  0  0  0
    3.6404    3.5825   -0.0890 N   0  0  0  0  0  0  0  0  0  0  0  0
    3.2595    4.9864   -0.0300 C   0  0  0  0  0  0  0  0  0  0  0  0
    3.0501    5.4625    1.4089 C   0  0  0  0  0  0  0  0  0  0  0  0
    2.5964    6.9231    1.4498 C   0  0  0  0  0  0  0  0  0  0  0  0
    2.3968    7.4192    2.8025 N   0  0  0  0  0  0  0  0  0  0  0  0
    1.1554    7.2535    3.5172 C   0  0  0  0  0  0  0  0  0  0  0  0
    1.3553    8.1101    4.7536 C   0  0  0  0  0  0  0  0  0  0  0  0
    2.8505    8.0009    5.0264 C   0  0  0  0  0  0  0  0  0  0  0  0
    3.4323    7.8011    3.6464 C   0  0  0  0  0  0  0  0  0  0  0  0
    4.6122    7.8994    3.3536 O   0  0  0  0  0  0  0  0  0  0  0  0
    0.3892    0.9852    0.2390 H   0  0  0  0  0  0  0  0  0  0  0  0
    0.5061   -0.6649    0.7771 H   0  0  0  0  0  0  0  0  0  0  0  0
    0.4055   -0.2663   -0.9663 H   0  0  0  0  0  0  0  0  0  0  0  0
    5.3994    1.2915   -0.1107 H   0  0  0  0  0  0  0  0  0  0  0  0
    6.9630   -0.3595    1.0521 H   0  0  0  0  0  0  0  0  0  0  0  0
    8.8718   -1.9136    1.0065 H   0  0  0  0  0  0  0  0  0  0  0  0
    6.5884   -4.6460   -1.4333 H   0  0  0  0  0  0  0  0  0  0  0  0
    4.7776   -3.0222   -1.5546 H   0  0  0  0  0  0  0  0  0  0  0  0
    7.8824   -6.0653    1.1794 H   0  0  0  0  0  0  0  0  0  0  0  0
    8.8596   -4.9316    2.1761 H   0  0  0  0  0  0  0  0  0  0  0  0
    9.6419   -6.3201    1.3682 H   0  0  0  0  0  0  0  0  0  0  0  0
    4.1166   -3.1713    1.4006 H   0  0  0  0  0  0  0  0  0  0  0  0
    3.4761   -5.5448    1.1487 H   0  0  0  0  0  0  0  0  0  0  0  0
    0.3051   -4.4542   -1.5098 H   0  0  0  0  0  0  0  0  0  0  0  0
    1.0547   -2.1261   -1.4901 H   0  0  0  0  0  0  0  0  0  0  0  0
    4.6197    3.3422   -0.0423 H   0  0  0  0  0  0  0  0  0  0  0  0
    2.3370    5.1296   -0.6092 H   0  0  0  0  0  0  0  0  0  0  0  0
    4.0483    5.5614   -0.5204 H   0  0  0  0  0  0  0  0  0  0  0  0
    3.9853    5.3431    1.9687 H   0  0  0  0  0  0  0  0  0  0  0  0
    2.3088    4.8303    1.9129 H   0  0  0  0  0  0  0  0  0  0  0  0
    1.6608    7.0619    0.8975 H   0  0  0  0  0  0  0  0  0  0  0  0
    3.3612    7.5519    0.9787 H   0  0  0  0  0  0  0  0  0  0  0  0
    1.0281    6.1966    3.7715 H   0  0  0  0  0  0  0  0  0  0  0  0
    0.3141    7.6000    2.9108 H   0  0  0  0  0  0  0  0  0  0  0  0
    0.7400    7.7919    5.6000 H   0  0  0  0  0  0  0  0  0  0  0  0
    1.1033    9.1545    4.5287 H   0  0  0  0  0  0  0  0  0  0  0  0
    3.0809    7.1222    5.6369 H   0  0  0  0  0  0  0  0  0  0  0  0
    3.2444    8.9042    5.4983 H   0  0  0  0  0  0  0  0  0  0  0  0
  1  2  1  0  0  0  0
  1 36  1  0  0  0  0
  1 37  1  0  0  0  0
  1 38  1  0  0  0  0
  2  3  2  0  0  0  0
  2 16  1  0  0  0  0
  3  4  1  0  0  0  0
  3 24  1  0  0  0  0
  4  5  2  0  0  0  0
  4 39  1  0  0  0  0
  5  6  1  0  0  0  0
  5 16  1  0  0  0  0
  6  7  1  0  0  0  0
  6 11  2  0  0  0  0
  7  8  2  0  0  0  0
  7 40  1  0  0  0  0
  8  9  1  0  0  0  0
  8 41  1  0  0  0  0
  9 10  2  0  0  0  0
  9 12  1  0  0  0  0
 10 11  1  0  0  0  0
 10 42  1  0  0  0  0
 11 43  1  0  0  0  0
 12 13  1  0  0  0  0
 12 14  2  0  0  0  0
 12 15  2  0  0  0  0
 13 44  1  0  0  0  0
 13 45  1  0  0  0  0
 13 46  1  0  0  0  0
 16 17  1  0  0  0  0
 17 18  1  0  0  0  0
 17 23  2  0  0  0  0
 18 19  2  0  0  0  0
 18 47  1  0  0  0  0
 19 20  1  0  0  0  0
 19 48  1  0  0  0  0
 20 21  1  0  0  0  0
 20 22  2  0  0  0  0
 22 23  1  0  0  0  0
 22 49  1  0  0  0  0
 23 50  1  0  0  0  0
 24 25  2  0  0  0  0
 24 26  1  0  0  0  0
 26 27  1  0  0  0  0
 26 51  1  0  0  0  0
 27 28  1  0  0  0  0
 27 52  1  0  0  0  0
 27 53  1  0  0  0  0
 28 29  1  0  0  0  0
 28 54  1  0  0  0  0
 28 55  1  0  0  0  0
 29 30  1  0  0  0  0
 29 56  1  0  0  0  0
 29 57  1  0  0  0  0
 30 31  1  0  0  0  0
 30 34  1  0  0  0  0
 31 32  1  0  0  0  0
 31 58  1  0  0  0  0
 31 59  1  0  0  0  0
 32 33  1  0  0  0  0
 32 60  1  0  0  0  0
 32 61  1  0  0  0  0
 33 34  1  0  0  0  0
 33 62  1  0  0  0  0
 33 63  1  0  0  0  0
 34 35  2  0  0  0  0
M  END
$$$$
