
 OpenBabel07142516143D

 41 43  0  0  0  0  0  0  0  0999 V2000
    1.3558   -0.7307    0.1665 C   0  0  0  0  0  0  0  0  0  0  0  0
    2.6144   -0.1302   -0.0982 O   0  0  0  0  0  0  0  0  0  0  0  0
    3.1486    0.6955    0.8508 C   0  0  0  0  0  0  0  0  0  0  0  0
    3.9648    1.6885    0.2988 C   0  0  0  0  0  0  0  0  0  0  0  0
    4.6676    2.5871    1.1082 C   0  0  0  0  0  0  0  0  0  0  0  0
    4.5229    2.5692    2.4995 C   0  0  0  0  0  0  0  0  0  0  0  0
    3.7129    1.5651    3.0487 C   0  0  0  0  0  0  0  0  0  0  0  0
    3.0503    0.6193    2.2445 C   0  0  0  0  0  0  0  0  0  0  0  0
    2.2391   -0.6416    3.1017 Cl  0  0  0  0  0  0  0  0  0  0  0  0
    5.2598    3.4867    3.3903 C   0  0  0  0  0  0  0  0  0  0  0  0
    5.7528    3.2068    4.6573 C   0  0  0  0  0  0  0  0  0  0  0  0
    6.5755    4.2937    5.0263 C   0  0  0  0  0  0  0  0  0  0  0  0
    6.6171    5.2058    4.0416 N   0  0  0  0  0  0  0  0  0  0  0  0
    5.7153    4.7807    3.1155 N   0  0  0  0  0  0  0  0  0  0  0  0
    5.3930    5.6431    2.0286 C   0  0  0  0  0  0  0  0  0  0  0  0
    6.3844    6.5004    1.5260 C   0  0  0  0  0  0  0  0  0  0  0  0
    6.1462    7.2334    0.3621 C   0  0  0  0  0  0  0  0  0  0  0  0
    4.9078    7.1283   -0.2767 C   0  0  0  0  0  0  0  0  0  0  0  0
    3.8823    6.3549    0.2738 C   0  0  0  0  0  0  0  0  0  0  0  0
    4.1241    5.6157    1.4328 C   0  0  0  0  0  0  0  0  0  0  0  0
    4.6262    8.0007   -1.7866 S   0  0  0  0  0  0  0  0  0  0  0  0
    5.1491    6.8807   -2.9285 N   0  0  0  0  0  0  0  0  0  0  0  0
    3.2062    8.1405   -1.9976 O   0  0  0  0  0  0  0  0  0  0  0  0
    5.5404    9.1130   -1.8744 O   0  0  0  0  0  0  0  0  0  0  0  0
    7.3532    4.4277    6.3098 C   0  0  0  0  0  0  0  0  0  0  0  0
    7.1704    3.3461    7.1197 F   0  0  0  0  0  0  0  0  0  0  0  0
    8.6924    4.5270    6.1029 F   0  0  0  0  0  0  0  0  0  0  0  0
    6.9761    5.5130    7.0351 F   0  0  0  0  0  0  0  0  0  0  0  0
    0.9141   -1.0101   -0.7956 H   0  0  0  0  0  0  0  0  0  0  0  0
    0.6611   -0.0426    0.6594 H   0  0  0  0  0  0  0  0  0  0  0  0
    1.4839   -1.6578    0.7312 H   0  0  0  0  0  0  0  0  0  0  0  0
    4.0711    1.7554   -0.7826 H   0  0  0  0  0  0  0  0  0  0  0  0
    5.3330    3.2918    0.6145 H   0  0  0  0  0  0  0  0  0  0  0  0
    3.6136    1.4822    4.1290 H   0  0  0  0  0  0  0  0  0  0  0  0
    5.5998    2.2983    5.2270 H   0  0  0  0  0  0  0  0  0  0  0  0
    7.3659    6.5571    1.9953 H   0  0  0  0  0  0  0  0  0  0  0  0
    6.9352    7.8578   -0.0519 H   0  0  0  0  0  0  0  0  0  0  0  0
    2.9048    6.3046   -0.2029 H   0  0  0  0  0  0  0  0  0  0  0  0
    3.3137    5.0231    1.8515 H   0  0  0  0  0  0  0  0  0  0  0  0
    4.3707    6.6118   -3.5321 H   0  0  0  0  0  0  0  0  0  0  0  0
    5.9507    7.2544   -3.4381 H   0  0  0  0  0  0  0  0  0  0  0  0
  1  2  1  0  0  0  0
  1 29  1  0  0  0  0
  1 30  1  0  0  0  0
  1 31  1  0  0  0  0
  2  3  1  0  0  0  0
  3  4  1  0  0  0  0
  3  8  2  0  0  0  0
  4  5  2  0  0  0  0
  4 32  1  0  0  0  0
  5  6  1  0  0  0  0
  5 33  1  0  0  0  0
  6  7  2  0  0  0  0
  6 10  1  0  0  0  0
  7  8  1  0  0  0  0
  7 34  1  0  0  0  0
  8  9  1  0  0  0  0
 10 11  2  0  0  0  0
 10 14  1  0  0  0  0
 11 12  1  0  0  0  0
 11 35  1  0  0  0  0
 12 13  2  0  0  0  0
 12 25  1  0  0  0  0
 13 14  1  0  0  0  0
 14 15  1  0  0  0  0
 15 16  1  0  0  0  0
 15 20  2  0  0  0  0
 16 17  2  0  0  0  0
 16 36  1  0  0  0  0
 17 18  1  0  0  0  0
 17 37  1  0  0  0  0
 18 19  2  0  0  0  0
 18 21  1  0  0  0  0
 19 20  1  0  0  0  0
 19 38  1  0  0  0  0
 20 39  1  0  0  0  0
 21 22  1  0  0  0  0
 21 23  2  0  0  0  0
 21 24  2  0  0  0  0
 22 40  1  0  0  0  0
 22 41  1  0  0  0  0
 25 26  1  0  0  0  0
 25 27  1  0  0  0  0
 25 28  1  0  0  0  0
M  END
$$$$
