
 OpenBabel07142516563D

 57 59  0  0  1  0  0  0  0  0999 V2000
    0.9639   -0.0026   -0.0074 C   0  0  0  0  0  0  0  0  0  0  0  0
    2.4623   -0.0489   -0.0335 C   0  0  0  0  0  0  0  0  0  0  0  0
    3.3311    1.0391   -0.0004 C   0  0  0  0  0  0  0  0  0  0  0  0
    4.6386    0.4976    0.0632 C   0  0  0  0  0  0  0  0  0  0  0  0
    4.5771   -0.8896    0.0485 C   0  0  0  0  0  0  0  0  0  0  0  0
    5.7404   -1.8140   -0.0012 C   0  0  0  0  0  0  0  0  0  0  0  0
    6.9371   -1.4897    0.6628 C   0  0  0  0  0  0  0  0  0  0  0  0
    8.0218   -2.3831    0.6677 C   0  0  0  0  0  0  0  0  0  0  0  0
    7.8935   -3.6192    0.0459 C   0  0  0  0  0  0  0  0  0  0  0  0
    6.7329   -3.9470   -0.6484 C   0  0  0  0  0  0  0  0  0  0  0  0
    5.6871   -3.0235   -0.7064 C   0  0  0  0  0  0  0  0  0  0  0  0
    9.2423   -4.7817    0.0581 S   0  0  0  0  0  0  0  0  0  0  0  0
    8.9341   -5.7483    1.5065 C   0  0  0  0  0  0  0  0  0  0  0  0
    9.0912   -5.6372   -1.0958 O   0  0  0  0  0  0  0  0  0  0  0  0
   10.4625   -4.0238    0.2714 O   0  0  0  0  0  0  0  0  0  0  0  0
    3.2123   -1.2344    0.0379 N   0  0  0  0  0  0  0  0  0  0  0  0
    2.6605   -2.5554    0.1481 C   0  0  0  0  0  0  0  0  0  0  0  0
    1.5389   -2.9347   -0.6094 C   0  0  0  0  0  0  0  0  0  0  0  0
    1.0064   -4.2199   -0.5098 C   0  0  0  0  0  0  0  0  0  0  0  0
    1.6300   -5.1682    0.2934 C   0  0  0  0  0  0  0  0  0  0  0  0
    2.7628   -4.8101    1.0129 C   0  0  0  0  0  0  0  0  0  0  0  0
    3.4040   -5.7389    1.7338 F   0  0  0  0  0  0  0  0  0  0  0  0
    3.2585   -3.5116    0.9799 C   0  0  0  0  0  0  0  0  0  0  0  0
    2.9491    2.5005    0.0255 C   0  0  3  0  0  0  0  0  0  0  0  0
    2.7535    2.8838    1.4415 N   0  0  0  0  0  0  0  0  0  0  0  0
    3.9936    3.4460   -0.6012 C   0  0  0  0  0  0  0  0  0  0  0  0
    5.1592    3.5545   -0.2308 O   0  0  0  0  0  0  0  0  0  0  0  0
    3.4046    4.2538   -1.5305 O   0  0  0  0  0  0  0  0  0  0  0  0
    4.0829    5.4890   -1.7968 C   0  0  0  0  0  0  0  0  0  0  0  0
    4.6793    5.5329   -3.1959 C   0  0  0  0  0  0  0  0  0  0  0  0
    3.6196    5.3971   -4.2796 C   0  0  0  0  0  0  0  0  0  0  0  0
    4.2221    5.5129   -5.5630 O   0  0  0  0  0  0  0  0  0  0  0  0
    0.5887    1.0205    0.0831 H   0  0  0  0  0  0  0  0  0  0  0  0
    0.5711   -0.5647    0.8442 H   0  0  0  0  0  0  0  0  0  0  0  0
    0.5357   -0.3847   -0.9369 H   0  0  0  0  0  0  0  0  0  0  0  0
    5.5601    1.0687    0.0905 H   0  0  0  0  0  0  0  0  0  0  0  0
    7.0457   -0.5415    1.1814 H   0  0  0  0  0  0  0  0  0  0  0  0
    8.9478   -2.0965    1.1668 H   0  0  0  0  0  0  0  0  0  0  0  0
    6.6243   -4.9094   -1.1452 H   0  0  0  0  0  0  0  0  0  0  0  0
    4.8095   -3.2949   -1.2884 H   0  0  0  0  0  0  0  0  0  0  0  0
    7.9704   -6.2522    1.4043 H   0  0  0  0  0  0  0  0  0  0  0  0
    8.9426   -5.0986    2.3833 H   0  0  0  0  0  0  0  0  0  0  0  0
    9.7320   -6.4923    1.5897 H   0  0  0  0  0  0  0  0  0  0  0  0
    1.0934   -2.2668   -1.3394 H   0  0  0  0  0  0  0  0  0  0  0  0
    0.1240   -4.4871   -1.0881 H   0  0  0  0  0  0  0  0  0  0  0  0
    1.2519   -6.1836    0.3502 H   0  0  0  0  0  0  0  0  0  0  0  0
    4.1274   -3.2831    1.5891 H   0  0  0  0  0  0  0  0  0  0  0  0
    2.0011    2.6495   -0.5047 H   0  0  0  0  0  0  0  0  0  0  0  0
    3.6385    2.7196    1.9258 H   0  0  0  0  0  0  0  0  0  0  0  0
    2.0820    2.2470    1.8628 H   0  0  0  0  0  0  0  0  0  0  0  0
    4.8605    5.6985   -1.0538 H   0  0  0  0  0  0  0  0  0  0  0  0
    3.3333    6.2806   -1.6897 H   0  0  0  0  0  0  0  0  0  0  0  0
    5.4261    4.7415   -3.3220 H   0  0  0  0  0  0  0  0  0  0  0  0
    5.2110    6.4833   -3.3272 H   0  0  0  0  0  0  0  0  0  0  0  0
    2.8553    6.1758   -4.1882 H   0  0  0  0  0  0  0  0  0  0  0  0
    3.1254    4.4227   -4.2280 H   0  0  0  0  0  0  0  0  0  0  0  0
    4.6418    6.3883   -5.6177 H   0  0  0  0  0  0  0  0  0  0  0  0
  1  2  1  0  0  0  0
  1 33  1  0  0  0  0
  1 34  1  0  0  0  0
  1 35  1  0  0  0  0
  2  3  2  0  0  0  0
  2 16  1  0  0  0  0
  3  4  1  0  0  0  0
  3 24  1  0  0  0  0
  4  5  2  0  0  0  0
  4 36  1  0  0  0  0
  5  6  1  0  0  0  0
  5 16  1  0  0  0  0
  6  7  1  0  0  0  0
  6 11  2  0  0  0  0
  7  8  2  0  0  0  0
  7 37  1  0  0  0  0
  8  9  1  0  0  0  0
  8 38  1  0  0  0  0
  9 10  2  0  0  0  0
  9 12  1  0  0  0  0
 10 11  1  0  0  0  0
 10 39  1  0  0  0  0
 11 40  1  0  0  0  0
 12 13  1  0  0  0  0
 12 14  2  0  0  0  0
 12 15  2  0  0  0  0
 13 41  1  0  0  0  0
 13 42  1  0  0  0  0
 13 43  1  0  0  0  0
 16 17  1  0  0  0  0
 17 18  1  0  0  0  0
 17 23  2  0  0  0  0
 18 19  2  0  0  0  0
 18 44  1  0  0  0  0
 19 20  1  0  0  0  0
 19 45  1  0  0  0  0
 20 21  2  0  0  0  0
 20 46  1  0  0  0  0
 21 22  1  0  0  0  0
 21 23  1  0  0  0  0
 23 47  1  0  0  0  0
 24 25  1  0  0  0  0
 24 26  1  0  0  0  0
 24 48  1  0  0  0  0
 25 49  1  0  0  0  0
 25 50  1  0  0  0  0
 26 27  2  0  0  0  0
 26 28  1  0  0  0  0
 28 29  1  0  0  0  0
 29 30  1  0  0  0  0
 29 51  1  0  0  0  0
 29 52  1  0  0  0  0
 30 31  1  0  0  0  0
 30 53  1  0  0  0  0
 30 54  1  0  0  0  0
 31 32  1  0  0  0  0
 31 55  1  0  0  0  0
 31 56  1  0  0  0  0
 32 57  1  0  0  0  0
M  END
$$$$
