
 OpenBabel07142516263D

 38 40  0  0  0  0  0  0  0  0999 V2000
    4.1510    0.0858   -0.9451 C   0  0  0  0  0  0  0  0  0  0  0  0
    2.7212   -0.0037    0.0994 S   0  0  0  0  0  0  0  0  0  0  0  0
    1.5891    0.5194   -0.6369 O   0  0  0  0  0  0  0  0  0  0  0  0
    2.6796   -1.3276    0.6935 O   0  0  0  0  0  0  0  0  0  0  0  0
    3.0978    1.1507    1.3974 C   0  0  0  0  0  0  0  0  0  0  0  0
    2.6966    2.4861    1.2848 C   0  0  0  0  0  0  0  0  0  0  0  0
    3.0053    3.3866    2.3087 C   0  0  0  0  0  0  0  0  0  0  0  0
    3.7304    2.9520    3.4280 C   0  0  0  0  0  0  0  0  0  0  0  0
    4.0720    1.5969    3.5560 C   0  0  0  0  0  0  0  0  0  0  0  0
    3.7618    0.6968    2.5378 C   0  0  0  0  0  0  0  0  0  0  0  0
    4.1131    3.8907    4.4278 N   0  0  0  0  0  0  0  0  0  0  0  0
    3.3097    4.9610    4.6709 N   0  0  0  0  0  0  0  0  0  0  0  0
    3.7438    5.4674    5.8394 C   0  0  0  0  0  0  0  0  0  0  0  0
    4.9534    4.8431    6.2266 C   0  0  0  0  0  0  0  0  0  0  0  0
    5.2320    3.8864    5.2661 C   0  0  0  0  0  0  0  0  0  0  0  0
    6.4465    3.0671    5.1117 C   0  0  0  0  0  0  0  0  0  0  0  0
    7.1485    2.6191    6.2410 C   0  0  0  0  0  0  0  0  0  0  0  0
    8.2899    1.8204    6.1058 C   0  0  0  0  0  0  0  0  0  0  0  0
    8.7333    1.4491    4.8393 C   0  0  0  0  0  0  0  0  0  0  0  0
   10.1153    0.4408    4.6722 Cl  0  0  0  0  0  0  0  0  0  0  0  0
    8.0644    1.8964    3.7061 C   0  0  0  0  0  0  0  0  0  0  0  0
    6.9499    2.7289    3.8437 C   0  0  0  0  0  0  0  0  0  0  0  0
    3.0347    6.5655    6.5869 C   0  0  0  0  0  0  0  0  0  0  0  0
    1.8823    6.9785    5.9979 F   0  0  0  0  0  0  0  0  0  0  0  0
    2.7078    6.1695    7.8478 F   0  0  0  0  0  0  0  0  0  0  0  0
    3.8223    7.6664    6.7264 F   0  0  0  0  0  0  0  0  0  0  0  0
    4.0049   -0.6026   -1.7804 H   0  0  0  0  0  0  0  0  0  0  0  0
    5.0326   -0.2110   -0.3715 H   0  0  0  0  0  0  0  0  0  0  0  0
    4.2578    1.1061   -1.3191 H   0  0  0  0  0  0  0  0  0  0  0  0
    2.1494    2.8334    0.4109 H   0  0  0  0  0  0  0  0  0  0  0  0
    2.7096    4.4299    2.2057 H   0  0  0  0  0  0  0  0  0  0  0  0
    4.5614    1.2155    4.4487 H   0  0  0  0  0  0  0  0  0  0  0  0
    4.0350   -0.3513    2.6479 H   0  0  0  0  0  0  0  0  0  0  0  0
    5.5665    5.1031    7.0816 H   0  0  0  0  0  0  0  0  0  0  0  0
    6.8133    2.8782    7.2428 H   0  0  0  0  0  0  0  0  0  0  0  0
    8.8225    1.4870    6.9929 H   0  0  0  0  0  0  0  0  0  0  0  0
    8.4018    1.6075    2.7143 H   0  0  0  0  0  0  0  0  0  0  0  0
    6.4700    3.0896    2.9361 H   0  0  0  0  0  0  0  0  0  0  0  0
  1  2  1  0  0  0  0
  1 27  1  0  0  0  0
  1 28  1  0  0  0  0
  1 29  1  0  0  0  0
  2  3  2  0  0  0  0
  2  4  2  0  0  0  0
  2  5  1  0  0  0  0
  5  6  1  0  0  0  0
  5 10  2  0  0  0  0
  6  7  2  0  0  0  0
  6 30  1  0  0  0  0
  7  8  1  0  0  0  0
  7 31  1  0  0  0  0
  8  9  2  0  0  0  0
  8 11  1  0  0  0  0
  9 10  1  0  0  0  0
  9 32  1  0  0  0  0
 10 33  1  0  0  0  0
 11 12  1  0  0  0  0
 11 15  1  0  0  0  0
 12 13  2  0  0  0  0
 13 14  1  0  0  0  0
 13 23  1  0  0  0  0
 14 15  2  0  0  0  0
 14 34  1  0  0  0  0
 15 16  1  0  0  0  0
 16 17  1  0  0  0  0
 16 22  2  0  0  0  0
 17 18  2  0  0  0  0
 17 35  1  0  0  0  0
 18 19  1  0  0  0  0
 18 36  1  0  0  0  0
 19 20  1  0  0  0  0
 19 21  2  0  0  0  0
 21 22  1  0  0  0  0
 21 37  1  0  0  0  0
 22 38  1  0  0  0  0
 23 24  1  0  0  0  0
 23 25  1  0  0  0  0
 23 26  1  0  0  0  0
M  END
$$$$
