
 OpenBabel07142517273D

 40 42  0  0  0  0  0  0  0  0999 V2000
    2.2969    0.7335    0.3681 C   0  0  0  0  0  0  0  0  0  0  0  0
    3.6997   -0.3476    0.4693 S   0  0  0  0  0  0  0  0  0  0  0  0
    4.8380    0.4312    0.9156 O   0  0  0  0  0  0  0  0  0  0  0  0
    3.2951   -1.5482    1.1735 O   0  0  0  0  0  0  0  0  0  0  0  0
    3.9989   -0.8020   -1.2263 C   0  0  0  0  0  0  0  0  0  0  0  0
    4.9079   -0.0656   -1.9914 C   0  0  0  0  0  0  0  0  0  0  0  0
    5.1695   -0.4443   -3.3116 C   0  0  0  0  0  0  0  0  0  0  0  0
    4.5067   -1.5481   -3.8667 C   0  0  0  0  0  0  0  0  0  0  0  0
    3.6267   -2.3038   -3.0761 C   0  0  0  0  0  0  0  0  0  0  0  0
    3.3701   -1.9292   -1.7556 C   0  0  0  0  0  0  0  0  0  0  0  0
    4.7292   -1.8957   -5.2288 N   0  0  0  0  0  0  0  0  0  0  0  0
    5.9366   -1.7742   -5.8875 C   0  0  0  0  0  0  0  0  0  0  0  0
    5.7875   -2.4112   -7.1031 C   0  0  0  0  0  0  0  0  0  0  0  0
    4.4899   -2.8132   -7.2469 N   0  0  0  0  0  0  0  0  0  0  0  0
    3.8336   -2.4326   -6.1590 C   0  0  0  0  0  0  0  0  0  0  0  0
    2.3678   -2.5162   -6.0447 C   0  0  0  0  0  0  0  0  0  0  0  0
    1.6893   -3.5487   -6.7092 C   0  0  0  0  0  0  0  0  0  0  0  0
    0.2995   -3.6632   -6.6244 C   0  0  0  0  0  0  0  0  0  0  0  0
   -0.4307   -2.7497   -5.8681 C   0  0  0  0  0  0  0  0  0  0  0  0
    0.2226   -1.7015   -5.2271 C   0  0  0  0  0  0  0  0  0  0  0  0
    1.6080   -1.5692   -5.3416 C   0  0  0  0  0  0  0  0  0  0  0  0
    6.8295   -2.6291   -8.1031 C   0  0  0  0  0  0  0  0  0  0  0  0
    7.8998   -2.0154   -8.0216 O   0  0  0  0  0  0  0  0  0  0  0  0
    6.5549   -3.6279   -9.2239 C   0  0  0  0  0  0  0  0  0  0  0  0
    5.4172   -4.3674   -9.1011 F   0  0  0  0  0  0  0  0  0  0  0  0
    6.4804   -3.0229  -10.4458 F   0  0  0  0  0  0  0  0  0  0  0  0
    7.5650   -4.5446   -9.3301 F   0  0  0  0  0  0  0  0  0  0  0  0
    2.0525    1.0634    1.3784 H   0  0  0  0  0  0  0  0  0  0  0  0
    1.4525    0.1882   -0.0566 H   0  0  0  0  0  0  0  0  0  0  0  0
    2.5527    1.5951   -0.2488 H   0  0  0  0  0  0  0  0  0  0  0  0
    5.4161    0.8009   -1.5717 H   0  0  0  0  0  0  0  0  0  0  0  0
    5.8568    0.1623   -3.8977 H   0  0  0  0  0  0  0  0  0  0  0  0
    3.1471   -3.2039   -3.4583 H   0  0  0  0  0  0  0  0  0  0  0  0
    2.6911   -2.5286   -1.1508 H   0  0  0  0  0  0  0  0  0  0  0  0
    6.8163   -1.3546   -5.4176 H   0  0  0  0  0  0  0  0  0  0  0  0
    2.2452   -4.2687   -7.3086 H   0  0  0  0  0  0  0  0  0  0  0  0
   -0.2106   -4.4647   -7.1527 H   0  0  0  0  0  0  0  0  0  0  0  0
   -1.5107   -2.8454   -5.7920 H   0  0  0  0  0  0  0  0  0  0  0  0
   -0.3445   -0.9797   -4.6453 H   0  0  0  0  0  0  0  0  0  0  0  0
    2.0797   -0.7132   -4.8664 H   0  0  0  0  0  0  0  0  0  0  0  0
  1  2  1  0  0  0  0
  1 28  1  0  0  0  0
  1 29  1  0  0  0  0
  1 30  1  0  0  0  0
  2  3  2  0  0  0  0
  2  4  2  0  0  0  0
  2  5  1  0  0  0  0
  5  6  1  0  0  0  0
  5 10  2  0  0  0  0
  6  7  2  0  0  0  0
  6 31  1  0  0  0  0
  7  8  1  0  0  0  0
  7 32  1  0  0  0  0
  8  9  2  0  0  0  0
  8 11  1  0  0  0  0
  9 10  1  0  0  0  0
  9 33  1  0  0  0  0
 10 34  1  0  0  0  0
 11 12  1  0  0  0  0
 11 15  1  0  0  0  0
 12 13  2  0  0  0  0
 12 35  1  0  0  0  0
 13 14  1  0  0  0  0
 13 22  1  0  0  0  0
 14 15  2  0  0  0  0
 15 16  1  0  0  0  0
 16 17  1  0  0  0  0
 16 21  2  0  0  0  0
 17 18  2  0  0  0  0
 17 36  1  0  0  0  0
 18 19  1  0  0  0  0
 18 37  1  0  0  0  0
 19 20  2  0  0  0  0
 19 38  1  0  0  0  0
 20 21  1  0  0  0  0
 20 39  1  0  0  0  0
 21 40  1  0  0  0  0
 22 23  2  0  0  0  0
 22 24  1  0  0  0  0
 24 25  1  0  0  0  0
 24 26  1  0  0  0  0
 24 27  1  0  0  0  0
M  END
$$$$
