
 OpenBabel07142515543D

 49 51  0  0  0  0  0  0  0  0999 V2000
    3.6804    3.1805    4.6579 C   0  0  0  0  0  0  0  0  0  0  0  0
    2.8351    2.4006    3.8115 O   0  0  0  0  0  0  0  0  0  0  0  0
    3.2200    2.2995    2.4974 C   0  0  0  0  0  0  0  0  0  0  0  0
    4.5881    2.2720    2.1661 C   0  0  0  0  0  0  0  0  0  0  0  0
    5.0112    2.2714    0.8391 C   0  0  0  0  0  0  0  0  0  0  0  0
    4.0406    2.0854   -0.1448 C   0  0  0  0  0  0  0  0  0  0  0  0
    2.6688    2.1246    0.1479 C   0  0  0  0  0  0  0  0  0  0  0  0
    1.9255    2.1192   -1.0069 O   0  0  0  0  0  0  0  0  0  0  0  0
    0.5187    2.2861   -0.9457 C   0  0  0  0  0  0  0  0  0  0  0  0
    2.2368    2.2260    1.4846 C   0  0  0  0  0  0  0  0  0  0  0  0
    0.8821    2.2432    1.6677 O   0  0  0  0  0  0  0  0  0  0  0  0
    0.3159    2.4504    2.9493 C   0  0  0  0  0  0  0  0  0  0  0  0
    6.4176    2.5589    0.5042 C   0  0  0  0  0  0  0  0  0  0  0  0
    7.5675    2.2343    1.2057 C   0  0  0  0  0  0  0  0  0  0  0  0
    8.6599    2.6557    0.4100 C   0  0  0  0  0  0  0  0  0  0  0  0
    8.2237    3.1885   -0.7435 N   0  0  0  0  0  0  0  0  0  0  0  0
    6.8746    3.2786   -0.6090 N   0  0  0  0  0  0  0  0  0  0  0  0
    6.1346    4.0265   -1.5715 C   0  0  0  0  0  0  0  0  0  0  0  0
    6.5588    4.0165   -2.9078 C   0  0  0  0  0  0  0  0  0  0  0  0
    5.7432    4.5676   -3.8999 C   0  0  0  0  0  0  0  0  0  0  0  0
    4.5194    5.1459   -3.5485 C   0  0  0  0  0  0  0  0  0  0  0  0
    4.1402    5.2513   -2.2098 C   0  0  0  0  0  0  0  0  0  0  0  0
    4.9604    4.7089   -1.2193 C   0  0  0  0  0  0  0  0  0  0  0  0
    3.4491    5.7734   -4.8128 S   0  0  0  0  0  0  0  0  0  0  0  0
    2.5687    4.4033   -5.2235 N   0  0  0  0  0  0  0  0  0  0  0  0
    2.5045    6.6944   -4.2232 O   0  0  0  0  0  0  0  0  0  0  0  0
    4.2351    6.1054   -5.9720 O   0  0  0  0  0  0  0  0  0  0  0  0
   10.1224    2.5287    0.7462 C   0  0  0  0  0  0  0  0  0  0  0  0
   10.3078    1.9545    1.9684 F   0  0  0  0  0  0  0  0  0  0  0  0
   10.8018    1.7617   -0.1460 F   0  0  0  0  0  0  0  0  0  0  0  0
   10.7476    3.7350    0.7964 F   0  0  0  0  0  0  0  0  0  0  0  0
    3.0417    3.7646    5.3261 H   0  0  0  0  0  0  0  0  0  0  0  0
    4.3113    3.8954    4.1168 H   0  0  0  0  0  0  0  0  0  0  0  0
    4.2999    2.5127    5.2643 H   0  0  0  0  0  0  0  0  0  0  0  0
    5.3350    2.2903    2.9542 H   0  0  0  0  0  0  0  0  0  0  0  0
    4.3274    1.9953   -1.1918 H   0  0  0  0  0  0  0  0  0  0  0  0
    0.1555    2.3867   -1.9739 H   0  0  0  0  0  0  0  0  0  0  0  0
    0.2299    3.2029   -0.4214 H   0  0  0  0  0  0  0  0  0  0  0  0
    0.0485    1.3963   -0.5185 H   0  0  0  0  0  0  0  0  0  0  0  0
   -0.7719    2.4634    2.8232 H   0  0  0  0  0  0  0  0  0  0  0  0
    0.6027    3.4212    3.3639 H   0  0  0  0  0  0  0  0  0  0  0  0
    0.5481    1.6228    3.6249 H   0  0  0  0  0  0  0  0  0  0  0  0
    7.6253    1.7245    2.1589 H   0  0  0  0  0  0  0  0  0  0  0  0
    7.4826    3.5179   -3.1968 H   0  0  0  0  0  0  0  0  0  0  0  0
    6.0522    4.5108   -4.9413 H   0  0  0  0  0  0  0  0  0  0  0  0
    3.1997    5.7217   -1.9305 H   0  0  0  0  0  0  0  0  0  0  0  0
    4.6469    4.8035   -0.1820 H   0  0  0  0  0  0  0  0  0  0  0  0
    1.5817    4.5458   -5.0087 H   0  0  0  0  0  0  0  0  0  0  0  0
    2.7500    4.1489   -6.1950 H   0  0  0  0  0  0  0  0  0  0  0  0
  1  2  1  0  0  0  0
  1 32  1  0  0  0  0
  1 33  1  0  0  0  0
  1 34  1  0  0  0  0
  2  3  1  0  0  0  0
  3  4  1  0  0  0  0
  3 10  2  0  0  0  0
  4  5  2  0  0  0  0
  4 35  1  0  0  0  0
  5  6  1  0  0  0  0
  5 13  1  0  0  0  0
  6  7  2  0  0  0  0
  6 36  1  0  0  0  0
  7  8  1  0  0  0  0
  7 10  1  0  0  0  0
  8  9  1  0  0  0  0
  9 37  1  0  0  0  0
  9 38  1  0  0  0  0
  9 39  1  0  0  0  0
 10 11  1  0  0  0  0
 11 12  1  0  0  0  0
 12 40  1  0  0  0  0
 12 41  1  0  0  0  0
 12 42  1  0  0  0  0
 13 14  2  0  0  0  0
 13 17  1  0  0  0  0
 14 15  1  0  0  0  0
 14 43  1  0  0  0  0
 15 16  2  0  0  0  0
 15 28  1  0  0  0  0
 16 17  1  0  0  0  0
 17 18  1  0  0  0  0
 18 19  1  0  0  0  0
 18 23  2  0  0  0  0
 19 20  2  0  0  0  0
 19 44  1  0  0  0  0
 20 21  1  0  0  0  0
 20 45  1  0  0  0  0
 21 22  2  0  0  0  0
 21 24  1  0  0  0  0
 22 23  1  0  0  0  0
 22 46  1  0  0  0  0
 23 47  1  0  0  0  0
 24 25  1  0  0  0  0
 24 26  2  0  0  0  0
 24 27  2  0  0  0  0
 25 48  1  0  0  0  0
 25 49  1  0  0  0  0
 28 29  1  0  0  0  0
 28 30  1  0  0  0  0
 28 31  1  0  0  0  0
M  END
$$$$
