
 OpenBabel07142517003D

 51 54  0  0  0  0  0  0  0  0999 V2000
    2.1370   -1.3751   -0.0977 C   0  0  0  0  0  0  0  0  0  0  0  0
    2.6592   -0.0579    0.0429 O   0  0  0  0  0  0  0  0  0  0  0  0
    3.2678    0.4380   -1.0759 C   0  0  0  0  0  0  0  0  0  0  0  0
    3.2677    1.8264   -1.1946 C   0  0  0  0  0  0  0  0  0  0  0  0
    3.8569    2.4339   -2.3038 C   0  0  0  0  0  0  0  0  0  0  0  0
    4.5043    1.6698   -3.2876 C   0  0  0  0  0  0  0  0  0  0  0  0
    4.5002    0.2757   -3.1563 C   0  0  0  0  0  0  0  0  0  0  0  0
    3.8888   -0.3347   -2.0573 C   0  0  0  0  0  0  0  0  0  0  0  0
    5.1502    2.3080   -4.4443 C   0  0  0  0  0  0  0  0  0  0  0  0
    5.7249    3.5172   -4.3783 C   0  0  0  0  0  0  0  0  0  0  0  0
    6.2845    4.1330   -5.5582 C   0  0  0  0  0  0  0  0  0  0  0  0
    6.8105    5.5156   -5.4566 C   0  0  0  0  0  0  0  0  0  0  0  0
    5.9318    6.6025   -5.5851 C   0  0  0  0  0  0  0  0  0  0  0  0
    6.4027    7.9134   -5.4734 C   0  0  0  0  0  0  0  0  0  0  0  0
    7.7491    8.1337   -5.1765 C   0  0  0  0  0  0  0  0  0  0  0  0
    8.6378    7.0630   -5.0478 C   0  0  0  0  0  0  0  0  0  0  0  0
    8.1642    5.7536   -5.1815 C   0  0  0  0  0  0  0  0  0  0  0  0
    8.3376    9.7983   -4.9509 S   0  0  0  0  0  0  0  0  0  0  0  0
    8.1897   10.0468   -3.1990 C   0  0  0  0  0  0  0  0  0  0  0  0
    9.7481    9.8143   -5.2896 O   0  0  0  0  0  0  0  0  0  0  0  0
    7.4019   10.6892   -5.6095 O   0  0  0  0  0  0  0  0  0  0  0  0
    6.2538    3.4609   -6.7334 C   0  0  0  0  0  0  0  0  0  0  0  0
    6.7525    4.0701   -7.9847 C   0  0  0  0  0  0  0  0  0  0  0  0
    8.0910    3.9290   -8.3731 C   0  0  0  0  0  0  0  0  0  0  0  0
    8.5663    4.5880   -9.5098 C   0  0  0  0  0  0  0  0  0  0  0  0
    7.7037    5.3677  -10.2774 C   0  0  0  0  0  0  0  0  0  0  0  0
    6.3635    5.4898   -9.9125 C   0  0  0  0  0  0  0  0  0  0  0  0
    5.8884    4.8464   -8.7692 C   0  0  0  0  0  0  0  0  0  0  0  0
    5.6469    2.0933   -6.7946 C   0  0  0  0  0  0  0  0  0  0  0  0
    5.5968    1.4568   -7.8432 O   0  0  0  0  0  0  0  0  0  0  0  0
    5.1308    1.5736   -5.6407 O   0  0  0  0  0  0  0  0  0  0  0  0
    1.5978   -1.6237    0.8203 H   0  0  0  0  0  0  0  0  0  0  0  0
    2.9359   -2.1134   -0.2162 H   0  0  0  0  0  0  0  0  0  0  0  0
    1.4288   -1.4240   -0.9324 H   0  0  0  0  0  0  0  0  0  0  0  0
    2.7889    2.4397   -0.4343 H   0  0  0  0  0  0  0  0  0  0  0  0
    3.7910    3.5154   -2.3914 H   0  0  0  0  0  0  0  0  0  0  0  0
    4.9783   -0.3549   -3.9035 H   0  0  0  0  0  0  0  0  0  0  0  0
    3.9243   -1.4168   -1.9945 H   0  0  0  0  0  0  0  0  0  0  0  0
    5.7646    4.0771   -3.4501 H   0  0  0  0  0  0  0  0  0  0  0  0
    4.8729    6.4329   -5.7714 H   0  0  0  0  0  0  0  0  0  0  0  0
    5.7142    8.7446   -5.6105 H   0  0  0  0  0  0  0  0  0  0  0  0
    9.6917    7.2352   -4.8410 H   0  0  0  0  0  0  0  0  0  0  0  0
    8.8566    4.9226   -5.0627 H   0  0  0  0  0  0  0  0  0  0  0  0
    8.8241    9.3273   -2.6780 H   0  0  0  0  0  0  0  0  0  0  0  0
    7.1454    9.9280   -2.9045 H   0  0  0  0  0  0  0  0  0  0  0  0
    8.5230   11.0625   -2.9737 H   0  0  0  0  0  0  0  0  0  0  0  0
    8.7767    3.3172   -7.7910 H   0  0  0  0  0  0  0  0  0  0  0  0
    9.6105    4.4988   -9.7954 H   0  0  0  0  0  0  0  0  0  0  0  0
    8.0711    5.8792  -11.1623 H   0  0  0  0  0  0  0  0  0  0  0  0
    5.6922    6.0937  -10.5186 H   0  0  0  0  0  0  0  0  0  0  0  0
    4.8442    4.9633   -8.4885 H   0  0  0  0  0  0  0  0  0  0  0  0
  1  2  1  0  0  0  0
  1 32  1  0  0  0  0
  1 33  1  0  0  0  0
  1 34  1  0  0  0  0
  2  3  1  0  0  0  0
  3  4  1  0  0  0  0
  3  8  2  0  0  0  0
  4  5  2  0  0  0  0
  4 35  1  0  0  0  0
  5  6  1  0  0  0  0
  5 36  1  0  0  0  0
  6  7  2  0  0  0  0
  6  9  1  0  0  0  0
  7  8  1  0  0  0  0
  7 37  1  0  0  0  0
  8 38  1  0  0  0  0
  9 10  2  0  0  0  0
  9 31  1  0  0  0  0
 10 11  1  0  0  0  0
 10 39  1  0  0  0  0
 11 12  1  0  0  0  0
 11 22  2  0  0  0  0
 12 13  1  0  0  0  0
 12 17  2  0  0  0  0
 13 14  2  0  0  0  0
 13 40  1  0  0  0  0
 14 15  1  0  0  0  0
 14 41  1  0  0  0  0
 15 16  2  0  0  0  0
 15 18  1  0  0  0  0
 16 17  1  0  0  0  0
 16 42  1  0  0  0  0
 17 43  1  0  0  0  0
 18 19  1  0  0  0  0
 18 20  2  0  0  0  0
 18 21  2  0  0  0  0
 19 44  1  0  0  0  0
 19 45  1  0  0  0  0
 19 46  1  0  0  0  0
 22 23  1  0  0  0  0
 22 29  1  0  0  0  0
 23 24  1  0  0  0  0
 23 28  2  0  0  0  0
 24 25  2  0  0  0  0
 24 47  1  0  0  0  0
 25 26  1  0  0  0  0
 25 48  1  0  0  0  0
 26 27  2  0  0  0  0
 26 49  1  0  0  0  0
 27 28  1  0  0  0  0
 27 50  1  0  0  0  0
 28 51  1  0  0  0  0
 29 30  2  0  0  0  0
 29 31  1  0  0  0  0
M  END
$$$$
