
 OpenBabel07142517583D

 43 46  0  0  1  0  0  0  0  0999 V2000
    4.0122   -0.1180   -0.8976 C   0  0  0  0  0  0  0  0  0  0  0  0
    2.7801   -0.1102    0.0078 C   0  0  3  0  0  0  0  0  0  0  0  0
    2.1567   -1.5035    0.0994 C   0  0  0  0  0  0  0  0  0  0  0  0
    1.0561   -1.5536    0.8892 O   0  0  0  0  0  0  0  0  0  0  0  0
    2.5588   -2.4932   -0.4971 O   0  0  0  0  0  0  0  0  0  0  0  0
    3.1247    0.5077    1.3591 C   0  0  0  0  0  0  0  0  0  0  0  0
    3.6443   -0.2595    2.4049 C   0  0  0  0  0  0  0  0  0  0  0  0
    3.9623    0.3248    3.6355 C   0  0  0  0  0  0  0  0  0  0  0  0
    3.7759    1.7092    3.8317 C   0  0  0  0  0  0  0  0  0  0  0  0
    3.2861    2.4822    2.7802 C   0  0  0  0  0  0  0  0  0  0  0  0
    2.9550    1.8936    1.5400 C   0  0  0  0  0  0  0  0  0  0  0  0
    3.1559    3.8013    3.2371 N   0  0  0  0  0  0  0  0  0  0  0  0
    2.5810    4.8675    2.4901 C   0  0  0  0  0  0  0  0  0  0  0  0
    2.6351    4.8085    1.2626 O   0  0  0  0  0  0  0  0  0  0  0  0
    1.8955    6.0384    3.0906 C   0  0  0  0  0  0  0  0  0  0  0  0
    2.0450    7.3023    2.5068 C   0  0  0  0  0  0  0  0  0  0  0  0
    1.4870    8.4236    3.1281 C   0  0  0  0  0  0  0  0  0  0  0  0
    0.7768    8.2756    4.3198 C   0  0  0  0  0  0  0  0  0  0  0  0
    0.1754    9.6629    5.1379 Cl  0  0  0  0  0  0  0  0  0  0  0  0
    0.5651    7.0100    4.8642 C   0  0  0  0  0  0  0  0  0  0  0  0
    1.1000    5.8857    4.2339 C   0  0  0  0  0  0  0  0  0  0  0  0
    3.6529    3.8691    4.5504 C   0  0  0  0  0  0  0  0  0  0  0  0
    3.8536    4.9580    5.4277 C   0  0  0  0  0  0  0  0  0  0  0  0
    4.3104    4.7120    6.7263 C   0  0  0  0  0  0  0  0  0  0  0  0
    4.6199    3.4242    7.1306 C   0  0  0  0  0  0  0  0  0  0  0  0
    5.1969    3.1477    8.7284 Cl  0  0  0  0  0  0  0  0  0  0  0  0
    4.4854    2.3498    6.2502 C   0  0  0  0  0  0  0  0  0  0  0  0
    3.9971    2.5723    4.9422 C   0  0  0  0  0  0  0  0  0  0  0  0
    3.7664   -0.5235   -1.8854 H   0  0  0  0  0  0  0  0  0  0  0  0
    4.8157   -0.7331   -0.4773 H   0  0  0  0  0  0  0  0  0  0  0  0
    4.4038    0.8953   -1.0410 H   0  0  0  0  0  0  0  0  0  0  0  0
    2.0152    0.5108   -0.4795 H   0  0  0  0  0  0  0  0  0  0  0  0
    0.8553   -0.7012    1.3222 H   0  0  0  0  0  0  0  0  0  0  0  0
    3.8147   -1.3289    2.2833 H   0  0  0  0  0  0  0  0  0  0  0  0
    4.3590   -0.2935    4.4373 H   0  0  0  0  0  0  0  0  0  0  0  0
    2.5772    2.5054    0.7228 H   0  0  0  0  0  0  0  0  0  0  0  0
    2.6092    7.4227    1.5834 H   0  0  0  0  0  0  0  0  0  0  0  0
    1.6235    9.4092    2.6891 H   0  0  0  0  0  0  0  0  0  0  0  0
    0.0037    6.8926    5.7879 H   0  0  0  0  0  0  0  0  0  0  0  0
    0.9242    4.9045    4.6699 H   0  0  0  0  0  0  0  0  0  0  0  0
    3.6600    5.9851    5.1334 H   0  0  0  0  0  0  0  0  0  0  0  0
    4.4273    5.5459    7.4161 H   0  0  0  0  0  0  0  0  0  0  0  0
    4.7576    1.3468    6.5658 H   0  0  0  0  0  0  0  0  0  0  0  0
  1  2  1  0  0  0  0
  1 29  1  0  0  0  0
  1 30  1  0  0  0  0
  1 31  1  0  0  0  0
  2  3  1  0  0  0  0
  2  6  1  0  0  0  0
  2 32  1  0  0  0  0
  3  4  1  0  0  0  0
  3  5  2  0  0  0  0
  4 33  1  0  0  0  0
  6  7  1  0  0  0  0
  6 11  2  0  0  0  0
  7  8  2  0  0  0  0
  7 34  1  0  0  0  0
  8  9  1  0  0  0  0
  8 35  1  0  0  0  0
  9 10  2  0  0  0  0
  9 28  1  0  0  0  0
 10 11  1  0  0  0  0
 10 12  1  0  0  0  0
 11 36  1  0  0  0  0
 12 13  1  0  0  0  0
 12 22  1  0  0  0  0
 13 14  2  0  0  0  0
 13 15  1  0  0  0  0
 15 16  1  0  0  0  0
 15 21  2  0  0  0  0
 16 17  2  0  0  0  0
 16 37  1  0  0  0  0
 17 18  1  0  0  0  0
 17 38  1  0  0  0  0
 18 19  1  0  0  0  0
 18 20  2  0  0  0  0
 20 21  1  0  0  0  0
 20 39  1  0  0  0  0
 21 40  1  0  0  0  0
 22 23  1  0  0  0  0
 22 28  2  0  0  0  0
 23 24  2  0  0  0  0
 23 41  1  0  0  0  0
 24 25  1  0  0  0  0
 24 42  1  0  0  0  0
 25 26  1  0  0  0  0
 25 27  2  0  0  0  0
 27 28  1  0  0  0  0
 27 43  1  0  0  0  0
M  END
$$$$
