
 OpenBabel07142517313D

 42 45  0  0  0  0  0  0  0  0999 V2000
    2.2772    0.3422    1.7212 C   0  0  0  0  0  0  0  0  0  0  0  0
    3.1321    0.3699    0.1663 S   0  0  0  0  0  0  0  0  0  0  0  0
    2.1803    0.7442   -0.8614 O   0  0  0  0  0  0  0  0  0  0  0  0
    4.3658    1.1053    0.3480 O   0  0  0  0  0  0  0  0  0  0  0  0
    3.5613   -1.3356   -0.0977 C   0  0  0  0  0  0  0  0  0  0  0  0
    2.7531   -2.1473   -0.8933 C   0  0  0  0  0  0  0  0  0  0  0  0
    3.1616   -3.4545   -1.1819 C   0  0  0  0  0  0  0  0  0  0  0  0
    4.3503   -3.9804   -0.6465 C   0  0  0  0  0  0  0  0  0  0  0  0
    5.1299   -3.1438    0.1727 C   0  0  0  0  0  0  0  0  0  0  0  0
    4.7558   -1.8234    0.4289 C   0  0  0  0  0  0  0  0  0  0  0  0
    4.8213   -5.3451   -0.9584 C   0  0  0  0  0  0  0  0  0  0  0  0
    6.1729   -5.5638   -1.0895 N   0  0  0  0  0  0  0  0  0  0  0  0
    6.4525   -6.8506   -1.4382 C   0  0  0  0  0  0  0  0  0  0  0  0
    7.7021   -7.4524   -1.6214 C   0  0  0  0  0  0  0  0  0  0  0  0
    7.7248   -8.7658   -2.0777 C   0  0  0  0  0  0  0  0  0  0  0  0
    6.5344   -9.4405   -2.3368 C   0  0  0  0  0  0  0  0  0  0  0  0
    5.2874   -8.8321   -2.0931 C   0  0  0  0  0  0  0  0  0  0  0  0
    5.2316   -7.5022   -1.6157 C   0  0  0  0  0  0  0  0  0  0  0  0
    4.1932   -6.5733   -1.2179 C   0  0  0  0  0  0  0  0  0  0  0  0
    2.7381   -6.7491   -1.1229 C   0  0  0  0  0  0  0  0  0  0  0  0
    2.0288   -6.1637   -0.0548 C   0  0  0  0  0  0  0  0  0  0  0  0
    0.6368   -6.0588   -0.0874 C   0  0  0  0  0  0  0  0  0  0  0  0
   -0.0601   -6.6209   -1.1450 C   0  0  0  0  0  0  0  0  0  0  0  0
   -1.3898   -6.4736   -1.2105 F   0  0  0  0  0  0  0  0  0  0  0  0
    0.6075   -7.3185   -2.1455 C   0  0  0  0  0  0  0  0  0  0  0  0
    2.0085   -7.3805   -2.1392 C   0  0  0  0  0  0  0  0  0  0  0  0
    1.9922    1.3679    1.9651 H   0  0  0  0  0  0  0  0  0  0  0  0
    2.9462   -0.0497    2.4898 H   0  0  0  0  0  0  0  0  0  0  0  0
    1.3849   -0.2787    1.6280 H   0  0  0  0  0  0  0  0  0  0  0  0
    1.8241   -1.7723   -1.3175 H   0  0  0  0  0  0  0  0  0  0  0  0
    2.5411   -4.0526   -1.8461 H   0  0  0  0  0  0  0  0  0  0  0  0
    6.0568   -3.5042    0.6125 H   0  0  0  0  0  0  0  0  0  0  0  0
    5.4104   -1.1879    1.0195 H   0  0  0  0  0  0  0  0  0  0  0  0
    6.8803   -4.8535   -0.9848 H   0  0  0  0  0  0  0  0  0  0  0  0
    8.6245   -6.9126   -1.4265 H   0  0  0  0  0  0  0  0  0  0  0  0
    8.6801   -9.2589   -2.2423 H   0  0  0  0  0  0  0  0  0  0  0  0
    6.5761  -10.4553   -2.7258 H   0  0  0  0  0  0  0  0  0  0  0  0
    4.3790   -9.3939   -2.2909 H   0  0  0  0  0  0  0  0  0  0  0  0
    2.5653   -5.7024    0.7715 H   0  0  0  0  0  0  0  0  0  0  0  0
    0.1052   -5.5080    0.6816 H   0  0  0  0  0  0  0  0  0  0  0  0
    0.0347   -7.7743   -2.9473 H   0  0  0  0  0  0  0  0  0  0  0  0
    2.5129   -7.8802   -2.9616 H   0  0  0  0  0  0  0  0  0  0  0  0
  1  2  1  0  0  0  0
  1 27  1  0  0  0  0
  1 28  1  0  0  0  0
  1 29  1  0  0  0  0
  2  3  2  0  0  0  0
  2  4  2  0  0  0  0
  2  5  1  0  0  0  0
  5  6  1  0  0  0  0
  5 10  2  0  0  0  0
  6  7  2  0  0  0  0
  6 30  1  0  0  0  0
  7  8  1  0  0  0  0
  7 31  1  0  0  0  0
  8  9  2  0  0  0  0
  8 11  1  0  0  0  0
  9 10  1  0  0  0  0
  9 32  1  0  0  0  0
 10 33  1  0  0  0  0
 11 12  1  0  0  0  0
 11 19  2  0  0  0  0
 12 13  1  0  0  0  0
 12 34  1  0  0  0  0
 13 14  1  0  0  0  0
 13 18  2  0  0  0  0
 14 15  2  0  0  0  0
 14 35  1  0  0  0  0
 15 16  1  0  0  0  0
 15 36  1  0  0  0  0
 16 17  2  0  0  0  0
 16 37  1  0  0  0  0
 17 18  1  0  0  0  0
 17 38  1  0  0  0  0
 18 19  1  0  0  0  0
 19 20  1  0  0  0  0
 20 21  1  0  0  0  0
 20 26  2  0  0  0  0
 21 22  2  0  0  0  0
 21 39  1  0  0  0  0
 22 23  1  0  0  0  0
 22 40  1  0  0  0  0
 23 24  1  0  0  0  0
 23 25  2  0  0  0  0
 25 26  1  0  0  0  0
 25 41  1  0  0  0  0
 26 42  1  0  0  0  0
M  END
$$$$
