
 OpenBabel07142517393D

 59 61  0  0  0  0  0  0  0  0999 V2000
    3.6234    1.0922    0.3968 C   0  0  0  0  0  0  0  0  0  0  0  0
    2.6196    0.0291   -0.1221 C   0  0  0  0  0  0  0  0  0  0  0  0
    1.3300    0.2355    0.7112 C   0  0  0  0  0  0  0  0  0  0  0  0
    2.3417    0.3883   -1.5987 C   0  0  0  0  0  0  0  0  0  0  0  0
    3.1210   -1.4338    0.0254 C   0  0  0  0  0  0  0  0  0  0  0  0
    4.3911   -1.7174    0.5718 C   0  0  0  0  0  0  0  0  0  0  0  0
    4.8320   -3.0280    0.7607 C   0  0  0  0  0  0  0  0  0  0  0  0
    6.1871   -3.3177    1.2758 C   0  0  0  0  0  0  0  0  0  0  0  0
    6.5218   -3.4794    2.5647 C   0  0  0  0  0  0  0  0  0  0  0  0
    5.4662   -3.3422    3.9193 S   0  0  0  0  0  0  0  0  0  0  0  0
    6.7880   -3.4207    5.0928 C   0  0  0  0  0  0  0  0  0  0  0  0
    6.5400   -3.0213    6.6939 S   0  0  0  0  0  0  0  0  0  0  0  0
    7.9533   -3.7678    4.4261 N   0  0  0  0  0  0  0  0  0  0  0  0
    9.2393   -3.8396    5.0494 N   0  0  0  0  0  0  0  0  0  0  0  0
    9.4830   -4.7819    6.0366 C   0  0  0  0  0  0  0  0  0  0  0  0
    8.6265   -5.4620    6.5882 O   0  0  0  0  0  0  0  0  0  0  0  0
   10.8981   -4.9808    6.4403 C   0  0  0  0  0  0  0  0  0  0  0  0
   11.2081   -5.0471    7.8002 C   0  0  0  0  0  0  0  0  0  0  0  0
   12.5063   -5.3855    8.1552 C   0  0  0  0  0  0  0  0  0  0  0  0
   13.4765   -5.6521    7.2554 N   0  0  0  0  0  0  0  0  0  0  0  0
   13.1428   -5.5869    5.9485 C   0  0  0  0  0  0  0  0  0  0  0  0
   11.8809   -5.2479    5.4898 C   0  0  0  0  0  0  0  0  0  0  0  0
    7.9178   -3.7443    3.0356 C   0  0  0  0  0  0  0  0  0  0  0  0
    8.8944   -3.8268    2.2991 O   0  0  0  0  0  0  0  0  0  0  0  0
    3.9720   -4.0947    0.4577 C   0  0  0  0  0  0  0  0  0  0  0  0
    2.6893   -3.8912   -0.0916 C   0  0  0  0  0  0  0  0  0  0  0  0
    2.3235   -2.5480   -0.3424 C   0  0  0  0  0  0  0  0  0  0  0  0
    1.1587   -2.3016   -1.0195 O   0  0  0  0  0  0  0  0  0  0  0  0
    1.7519   -5.0945   -0.3797 C   0  0  0  0  0  0  0  0  0  0  0  0
    2.3822   -6.4599    0.0018 C   0  0  0  0  0  0  0  0  0  0  0  0
    0.4548   -4.9874    0.4574 C   0  0  0  0  0  0  0  0  0  0  0  0
    1.3818   -5.1981   -1.8750 C   0  0  0  0  0  0  0  0  0  0  0  0
    3.2448    2.1087    0.2292 H   0  0  0  0  0  0  0  0  0  0  0  0
    4.5892    1.0270   -0.1163 H   0  0  0  0  0  0  0  0  0  0  0  0
    3.7953    0.9914    1.4752 H   0  0  0  0  0  0  0  0  0  0  0  0
    0.9958    1.2794    0.6721 H   0  0  0  0  0  0  0  0  0  0  0  0
    1.4970   -0.0198    1.7644 H   0  0  0  0  0  0  0  0  0  0  0  0
    0.4899   -0.3680    0.3596 H   0  0  0  0  0  0  0  0  0  0  0  0
    2.0696    1.4465   -1.7009 H   0  0  0  0  0  0  0  0  0  0  0  0
    1.5132   -0.1796   -2.0296 H   0  0  0  0  0  0  0  0  0  0  0  0
    3.2263    0.2118   -2.2204 H   0  0  0  0  0  0  0  0  0  0  0  0
    5.0670   -0.9153    0.8561 H   0  0  0  0  0  0  0  0  0  0  0  0
    6.9477   -3.3991    0.4985 H   0  0  0  0  0  0  0  0  0  0  0  0
   10.0014   -3.4701    4.4865 H   0  0  0  0  0  0  0  0  0  0  0  0
   10.4630   -4.8664    8.5662 H   0  0  0  0  0  0  0  0  0  0  0  0
   12.8049   -5.4692    9.1979 H   0  0  0  0  0  0  0  0  0  0  0  0
   13.9406   -5.8497    5.2569 H   0  0  0  0  0  0  0  0  0  0  0  0
   11.6689   -5.2582    4.4276 H   0  0  0  0  0  0  0  0  0  0  0  0
    4.3424   -5.0953    0.6457 H   0  0  0  0  0  0  0  0  0  0  0  0
    0.4404   -2.3485   -0.3655 H   0  0  0  0  0  0  0  0  0  0  0  0
    2.6158   -6.5083    1.0721 H   0  0  0  0  0  0  0  0  0  0  0  0
    3.3018   -6.6515   -0.5630 H   0  0  0  0  0  0  0  0  0  0  0  0
    1.6978   -7.2897   -0.2122 H   0  0  0  0  0  0  0  0  0  0  0  0
    0.6787   -4.9342    1.5290 H   0  0  0  0  0  0  0  0  0  0  0  0
   -0.1899   -5.8603    0.2954 H   0  0  0  0  0  0  0  0  0  0  0  0
   -0.1522   -4.1159    0.2062 H   0  0  0  0  0  0  0  0  0  0  0  0
    2.2747   -5.2986   -2.5006 H   0  0  0  0  0  0  0  0  0  0  0  0
    0.8144   -4.3368   -2.2393 H   0  0  0  0  0  0  0  0  0  0  0  0
    0.7499   -6.0786   -2.0584 H   0  0  0  0  0  0  0  0  0  0  0  0
  1  2  1  0  0  0  0
  1 33  1  0  0  0  0
  1 34  1  0  0  0  0
  1 35  1  0  0  0  0
  2  3  1  0  0  0  0
  2  4  1  0  0  0  0
  2  5  1  0  0  0  0
  3 36  1  0  0  0  0
  3 37  1  0  0  0  0
  3 38  1  0  0  0  0
  4 39  1  0  0  0  0
  4 40  1  0  0  0  0
  4 41  1  0  0  0  0
  5  6  1  0  0  0  0
  5 27  2  0  0  0  0
  6  7  2  0  0  0  0
  6 42  1  0  0  0  0
  7  8  1  0  0  0  0
  7 25  1  0  0  0  0
  8  9  2  0  0  0  0
  8 43  1  0  0  0  0
  9 10  1  0  0  0  0
  9 23  1  0  0  0  0
 10 11  1  0  0  0  0
 11 12  2  0  0  0  0
 11 13  1  0  0  0  0
 13 14  1  0  0  0  0
 13 23  1  0  0  0  0
 14 15  1  0  0  0  0
 14 44  1  0  0  0  0
 15 16  2  0  0  0  0
 15 17  1  0  0  0  0
 17 18  1  0  0  0  0
 17 22  2  0  0  0  0
 18 19  2  0  0  0  0
 18 45  1  0  0  0  0
 19 20  1  0  0  0  0
 19 46  1  0  0  0  0
 20 21  2  0  0  0  0
 21 22  1  0  0  0  0
 21 47  1  0  0  0  0
 22 48  1  0  0  0  0
 23 24  2  0  0  0  0
 25 26  2  0  0  0  0
 25 49  1  0  0  0  0
 26 27  1  0  0  0  0
 26 29  1  0  0  0  0
 27 28  1  0  0  0  0
 28 50  1  0  0  0  0
 29 30  1  0  0  0  0
 29 31  1  0  0  0  0
 29 32  1  0  0  0  0
 30 51  1  0  0  0  0
 30 52  1  0  0  0  0
 30 53  1  0  0  0  0
 31 54  1  0  0  0  0
 31 55  1  0  0  0  0
 31 56  1  0  0  0  0
 32 57  1  0  0  0  0
 32 58  1  0  0  0  0
 32 59  1  0  0  0  0
M  END
$$$$
