
 OpenBabel07142515513D

 40 42  0  0  0  0  0  0  0  0999 V2000
    1.0074   -0.0781   -0.0372 C   0  0  0  0  0  0  0  0  0  0  0  0
    2.4915    0.1067   -0.0628 C   0  0  0  0  0  0  0  0  0  0  0  0
    3.0712    1.3132   -0.0812 C   0  0  0  0  0  0  0  0  0  0  0  0
    4.5416    1.4081   -0.1059 C   0  0  0  0  0  0  0  0  0  0  0  0
    5.0805    2.5093   -0.1244 O   0  0  0  0  0  0  0  0  0  0  0  0
    5.3103    0.1325   -0.0949 C   0  0  0  0  0  0  0  0  0  0  0  0
    6.7822    0.1660   -0.0913 C   0  0  0  0  0  0  0  0  0  0  0  0
    7.4958    0.1283   -1.2978 C   0  0  0  0  0  0  0  0  0  0  0  0
    8.8892    0.0358   -1.2878 C   0  0  0  0  0  0  0  0  0  0  0  0
    9.5667    0.0009   -0.0664 C   0  0  0  0  0  0  0  0  0  0  0  0
    8.8706    0.0833    1.1416 C   0  0  0  0  0  0  0  0  0  0  0  0
    7.4781    0.1741    1.1255 C   0  0  0  0  0  0  0  0  0  0  0  0
   11.3251   -0.2580   -0.0459 S   0  0  0  0  0  0  0  0  0  0  0  0
   11.9891    1.3814   -0.0838 C   0  0  0  0  0  0  0  0  0  0  0  0
   11.6643   -0.8545    1.2331 O   0  0  0  0  0  0  0  0  0  0  0  0
   11.6814   -0.9198   -1.2889 O   0  0  0  0  0  0  0  0  0  0  0  0
    4.6026   -1.0173   -0.0644 C   0  0  0  0  0  0  0  0  0  0  0  0
    3.2163   -1.0710   -0.0617 O   0  0  0  0  0  0  0  0  0  0  0  0
    5.2126   -2.3598   -0.0074 C   0  0  0  0  0  0  0  0  0  0  0  0
    5.5118   -2.9438    1.2341 C   0  0  0  0  0  0  0  0  0  0  0  0
    6.0616   -4.2269    1.2971 C   0  0  0  0  0  0  0  0  0  0  0  0
    6.3065   -4.9258    0.1213 C   0  0  0  0  0  0  0  0  0  0  0  0
    6.8176   -6.1623    0.1834 F   0  0  0  0  0  0  0  0  0  0  0  0
    6.0203   -4.3632   -1.1170 C   0  0  0  0  0  0  0  0  0  0  0  0
    5.4743   -3.0767   -1.1836 C   0  0  0  0  0  0  0  0  0  0  0  0
    0.4763    0.8796   -0.0269 H   0  0  0  0  0  0  0  0  0  0  0  0
    0.7090   -0.6361    0.8559 H   0  0  0  0  0  0  0  0  0  0  0  0
    0.6781   -0.6343   -0.9207 H   0  0  0  0  0  0  0  0  0  0  0  0
    2.5184    2.2422   -0.0755 H   0  0  0  0  0  0  0  0  0  0  0  0
    6.9705    0.1446   -2.2505 H   0  0  0  0  0  0  0  0  0  0  0  0
    9.4296   -0.0359   -2.2295 H   0  0  0  0  0  0  0  0  0  0  0  0
    9.3947    0.0493    2.0941 H   0  0  0  0  0  0  0  0  0  0  0  0
    6.9368    0.2229    2.0680 H   0  0  0  0  0  0  0  0  0  0  0  0
   11.6698    1.9153    0.8125 H   0  0  0  0  0  0  0  0  0  0  0  0
   11.6400    1.8899   -0.9849 H   0  0  0  0  0  0  0  0  0  0  0  0
   13.0784    1.3020   -0.1014 H   0  0  0  0  0  0  0  0  0  0  0  0
    5.3133   -2.4059    2.1578 H   0  0  0  0  0  0  0  0  0  0  0  0
    6.2942   -4.6854    2.2529 H   0  0  0  0  0  0  0  0  0  0  0  0
    6.2187   -4.9304   -2.0209 H   0  0  0  0  0  0  0  0  0  0  0  0
    5.2512   -2.6446   -2.1556 H   0  0  0  0  0  0  0  0  0  0  0  0
  1  2  1  0  0  0  0
  1 26  1  0  0  0  0
  1 27  1  0  0  0  0
  1 28  1  0  0  0  0
  2  3  2  0  0  0  0
  2 18  1  0  0  0  0
  3  4  1  0  0  0  0
  3 29  1  0  0  0  0
  4  5  2  0  0  0  0
  4  6  1  0  0  0  0
  6  7  1  0  0  0  0
  6 17  2  0  0  0  0
  7  8  1  0  0  0  0
  7 12  2  0  0  0  0
  8  9  2  0  0  0  0
  8 30  1  0  0  0  0
  9 10  1  0  0  0  0
  9 31  1  0  0  0  0
 10 11  2  0  0  0  0
 10 13  1  0  0  0  0
 11 12  1  0  0  0  0
 11 32  1  0  0  0  0
 12 33  1  0  0  0  0
 13 14  1  0  0  0  0
 13 15  2  0  0  0  0
 13 16  2  0  0  0  0
 14 34  1  0  0  0  0
 14 35  1  0  0  0  0
 14 36  1  0  0  0  0
 17 18  1  0  0  0  0
 17 19  1  0  0  0  0
 19 20  1  0  0  0  0
 19 25  2  0  0  0  0
 20 21  2  0  0  0  0
 20 37  1  0  0  0  0
 21 22  1  0  0  0  0
 21 38  1  0  0  0  0
 22 23  1  0  0  0  0
 22 24  2  0  0  0  0
 24 25  1  0  0  0  0
 24 39  1  0  0  0  0
 25 40  1  0  0  0  0
M  END
$$$$
