
 OpenBabel07142516263D

 35 37  0  0  0  0  0  0  0  0999 V2000
    1.8751   -0.1235    0.2538 C   0  0  0  0  0  0  0  0  0  0  0  0
    3.6402   -0.0148    0.1692 S   0  0  0  0  0  0  0  0  0  0  0  0
    4.0738    0.9893    1.1208 O   0  0  0  0  0  0  0  0  0  0  0  0
    4.1834   -1.3623    0.2070 O   0  0  0  0  0  0  0  0  0  0  0  0
    3.9474    0.6355   -1.4583 C   0  0  0  0  0  0  0  0  0  0  0  0
    4.0712    2.0167   -1.6369 C   0  0  0  0  0  0  0  0  0  0  0  0
    4.3366    2.5243   -2.9111 C   0  0  0  0  0  0  0  0  0  0  0  0
    4.4660    1.6513   -4.0048 C   0  0  0  0  0  0  0  0  0  0  0  0
    4.3875    0.2673   -3.8052 C   0  0  0  0  0  0  0  0  0  0  0  0
    4.1228   -0.2405   -2.5308 C   0  0  0  0  0  0  0  0  0  0  0  0
    4.6624    2.1939   -5.3071 N   0  0  0  0  0  0  0  0  0  0  0  0
    5.4397    3.3039   -5.5523 C   0  0  0  0  0  0  0  0  0  0  0  0
    5.5240    3.5920   -6.8238 N   0  0  0  0  0  0  0  0  0  0  0  0
    4.7338    2.6674   -7.4502 C   0  0  0  0  0  0  0  0  0  0  0  0
    4.5052    2.7782   -9.1408 Cl  0  0  0  0  0  0  0  0  0  0  0  0
    4.1506    1.7739   -6.5466 C   0  0  0  0  0  0  0  0  0  0  0  0
    3.1214    0.7336   -6.7806 C   0  0  0  0  0  0  0  0  0  0  0  0
    3.1161   -0.0256   -7.9641 C   0  0  0  0  0  0  0  0  0  0  0  0
    2.1282   -0.9879   -8.2067 C   0  0  0  0  0  0  0  0  0  0  0  0
    1.1627   -1.2379   -7.2439 C   0  0  0  0  0  0  0  0  0  0  0  0
    0.2369   -2.1809   -7.4587 F   0  0  0  0  0  0  0  0  0  0  0  0
    1.1418   -0.5143   -6.0630 C   0  0  0  0  0  0  0  0  0  0  0  0
    2.0888    0.4934   -5.8554 C   0  0  0  0  0  0  0  0  0  0  0  0
    1.6079   -0.5244    1.2351 H   0  0  0  0  0  0  0  0  0  0  0  0
    1.5186   -0.7937   -0.5287 H   0  0  0  0  0  0  0  0  0  0  0  0
    1.4456    0.8753    0.1365 H   0  0  0  0  0  0  0  0  0  0  0  0
    3.9619    2.7022   -0.7983 H   0  0  0  0  0  0  0  0  0  0  0  0
    4.3875    3.6049   -3.0314 H   0  0  0  0  0  0  0  0  0  0  0  0
    4.5459   -0.4341   -4.6228 H   0  0  0  0  0  0  0  0  0  0  0  0
    4.0648   -1.3178   -2.3840 H   0  0  0  0  0  0  0  0  0  0  0  0
    5.9637    3.8355   -4.7680 H   0  0  0  0  0  0  0  0  0  0  0  0
    3.8755    0.1172   -8.7288 H   0  0  0  0  0  0  0  0  0  0  0  0
    2.1131   -1.5430   -9.1397 H   0  0  0  0  0  0  0  0  0  0  0  0
    0.3849   -0.7267   -5.3149 H   0  0  0  0  0  0  0  0  0  0  0  0
    2.0032    1.0788   -4.9440 H   0  0  0  0  0  0  0  0  0  0  0  0
  1  2  1  0  0  0  0
  1 24  1  0  0  0  0
  1 25  1  0  0  0  0
  1 26  1  0  0  0  0
  2  3  2  0  0  0  0
  2  4  2  0  0  0  0
  2  5  1  0  0  0  0
  5  6  1  0  0  0  0
  5 10  2  0  0  0  0
  6  7  2  0  0  0  0
  6 27  1  0  0  0  0
  7  8  1  0  0  0  0
  7 28  1  0  0  0  0
  8  9  2  0  0  0  0
  8 11  1  0  0  0  0
  9 10  1  0  0  0  0
  9 29  1  0  0  0  0
 10 30  1  0  0  0  0
 11 12  1  0  0  0  0
 11 16  1  0  0  0  0
 12 13  2  0  0  0  0
 12 31  1  0  0  0  0
 13 14  1  0  0  0  0
 14 15  1  0  0  0  0
 14 16  2  0  0  0  0
 16 17  1  0  0  0  0
 17 18  1  0  0  0  0
 17 23  2  0  0  0  0
 18 19  2  0  0  0  0
 18 32  1  0  0  0  0
 19 20  1  0  0  0  0
 19 33  1  0  0  0  0
 20 21  1  0  0  0  0
 20 22  2  0  0  0  0
 22 23  1  0  0  0  0
 22 34  1  0  0  0  0
 23 35  1  0  0  0  0
M  END
$$$$
