
 OpenBabel07142516063D

 40 42  0  0  1  0  0  0  0  0999 V2000
    0.9582   -0.0272   -0.1645 C   0  0  0  0  0  0  0  0  0  0  0  0
    2.4800    0.0139   -0.0395 C   0  0  3  0  0  0  0  0  0  0  0  0
    3.0942    0.0745   -1.3108 O   0  0  0  0  0  0  0  0  0  0  0  0
    2.8900   -1.1724    0.6340 O   0  0  0  0  0  0  0  0  0  0  0  0
    3.3582   -0.8399    1.8680 C   0  0  0  0  0  0  0  0  0  0  0  0
    3.6651   -1.6378    2.7323 O   0  0  0  0  0  0  0  0  0  0  0  0
    3.4434    0.6241    1.9818 C   0  0  0  0  0  0  0  0  0  0  0  0
    2.9746    1.1136    0.8300 C   0  0  0  0  0  0  0  0  0  0  0  0
    2.9653    2.5256    0.4504 C   0  0  0  0  0  0  0  0  0  0  0  0
    4.0698    3.0711   -0.2231 C   0  0  0  0  0  0  0  0  0  0  0  0
    4.1131    4.4324   -0.5358 C   0  0  0  0  0  0  0  0  0  0  0  0
    3.0385    5.2500   -0.1828 C   0  0  0  0  0  0  0  0  0  0  0  0
    1.9420    4.7280    0.5077 C   0  0  0  0  0  0  0  0  0  0  0  0
    1.9085    3.3651    0.8230 C   0  0  0  0  0  0  0  0  0  0  0  0
    3.0865    6.9859   -0.5699 S   0  0  0  0  0  0  0  0  0  0  0  0
    2.2846    7.0733   -2.1486 C   0  0  0  0  0  0  0  0  0  0  0  0
    2.2512    7.6693    0.3991 O   0  0  0  0  0  0  0  0  0  0  0  0
    4.4769    7.3578   -0.7473 O   0  0  0  0  0  0  0  0  0  0  0  0
    3.9483    1.3437    3.1410 C   0  0  0  0  0  0  0  0  0  0  0  0
    3.0710    1.6914    4.1756 C   0  0  0  0  0  0  0  0  0  0  0  0
    3.5347    2.4052    5.2819 C   0  0  0  0  0  0  0  0  0  0  0  0
    4.8793    2.7776    5.3628 C   0  0  0  0  0  0  0  0  0  0  0  0
    5.3828    3.6660    6.7560 Cl  0  0  0  0  0  0  0  0  0  0  0  0
    5.7609    2.4295    4.3329 C   0  0  0  0  0  0  0  0  0  0  0  0
    7.4359    2.8516    4.3667 Cl  0  0  0  0  0  0  0  0  0  0  0  0
    5.2943    1.7147    3.2239 C   0  0  0  0  0  0  0  0  0  0  0  0
    0.6473   -0.9291   -0.7055 H   0  0  0  0  0  0  0  0  0  0  0  0
    0.5686    0.8340   -0.7148 H   0  0  0  0  0  0  0  0  0  0  0  0
    0.4770   -0.0729    0.8200 H   0  0  0  0  0  0  0  0  0  0  0  0
    2.6368   -0.5786   -1.8658 H   0  0  0  0  0  0  0  0  0  0  0  0
    4.9128    2.4390   -0.4994 H   0  0  0  0  0  0  0  0  0  0  0  0
    4.9877    4.8421   -1.0384 H   0  0  0  0  0  0  0  0  0  0  0  0
    1.1220    5.3715    0.8186 H   0  0  0  0  0  0  0  0  0  0  0  0
    1.0578    2.9727    1.3758 H   0  0  0  0  0  0  0  0  0  0  0  0
    1.2615    6.7072   -2.0491 H   0  0  0  0  0  0  0  0  0  0  0  0
    2.8444    6.4712   -2.8677 H   0  0  0  0  0  0  0  0  0  0  0  0
    2.2748    8.1172   -2.4677 H   0  0  0  0  0  0  0  0  0  0  0  0
    2.0208    1.4075    4.1318 H   0  0  0  0  0  0  0  0  0  0  0  0
    2.8425    2.6681    6.0781 H   0  0  0  0  0  0  0  0  0  0  0  0
    5.9841    1.4470    2.4261 H   0  0  0  0  0  0  0  0  0  0  0  0
  1  2  1  0  0  0  0
  1 27  1  0  0  0  0
  1 28  1  0  0  0  0
  1 29  1  0  0  0  0
  2  3  1  0  0  0  0
  2  4  1  0  0  0  0
  2  8  1  0  0  0  0
  3 30  1  0  0  0  0
  4  5  1  0  0  0  0
  5  6  2  0  0  0  0
  5  7  1  0  0  0  0
  7  8  2  0  0  0  0
  7 19  1  0  0  0  0
  8  9  1  0  0  0  0
  9 10  1  0  0  0  0
  9 14  2  0  0  0  0
 10 11  2  0  0  0  0
 10 31  1  0  0  0  0
 11 12  1  0  0  0  0
 11 32  1  0  0  0  0
 12 13  2  0  0  0  0
 12 15  1  0  0  0  0
 13 14  1  0  0  0  0
 13 33  1  0  0  0  0
 14 34  1  0  0  0  0
 15 16  1  0  0  0  0
 15 17  2  0  0  0  0
 15 18  2  0  0  0  0
 16 35  1  0  0  0  0
 16 36  1  0  0  0  0
 16 37  1  0  0  0  0
 19 20  1  0  0  0  0
 19 26  2  0  0  0  0
 20 21  2  0  0  0  0
 20 38  1  0  0  0  0
 21 22  1  0  0  0  0
 21 39  1  0  0  0  0
 22 23  1  0  0  0  0
 22 24  2  0  0  0  0
 24 25  1  0  0  0  0
 24 26  1  0  0  0  0
 26 40  1  0  0  0  0
M  END
$$$$
