
 OpenBabel07142516343D

 43 46  0  0  0  0  0  0  0  0999 V2000
    2.6679   -1.1143   -1.6661 C   0  0  0  0  0  0  0  0  0  0  0  0
    2.7543   -0.1691   -0.1692 S   0  0  0  0  0  0  0  0  0  0  0  0
    1.4074   -0.0410    0.3596 O   0  0  0  0  0  0  0  0  0  0  0  0
    3.8212   -0.7123    0.6476 O   0  0  0  0  0  0  0  0  0  0  0  0
    3.2675    1.4416   -0.7214 C   0  0  0  0  0  0  0  0  0  0  0  0
    2.3025    2.3947   -1.0615 C   0  0  0  0  0  0  0  0  0  0  0  0
    2.7056    3.6668   -1.4682 C   0  0  0  0  0  0  0  0  0  0  0  0
    4.0669    3.9865   -1.5308 C   0  0  0  0  0  0  0  0  0  0  0  0
    5.0255    3.0293   -1.1708 C   0  0  0  0  0  0  0  0  0  0  0  0
    4.6284    1.7554   -0.7615 C   0  0  0  0  0  0  0  0  0  0  0  0
    4.4899    5.3109   -1.9644 C   0  0  0  0  0  0  0  0  0  0  0  0
    4.6799    6.4126   -1.2117 C   0  0  0  0  0  0  0  0  0  0  0  0
    5.2315    7.5500   -2.0348 C   0  0  0  0  0  0  0  0  0  0  0  0
    5.5855    6.8881   -3.3576 C   0  0  0  0  0  0  0  0  0  0  0  0
    7.0117    6.9628   -3.8601 C   0  0  0  0  0  0  0  0  0  0  0  0
    5.9145    7.6668   -4.6078 C   0  0  0  0  0  0  0  0  0  0  0  0
    4.8685    5.5537   -3.4007 C   0  0  0  0  0  0  0  0  0  0  0  0
    4.4650    6.5232    0.2248 C   0  0  0  0  0  0  0  0  0  0  0  0
    5.5063    6.2425    1.1222 C   0  0  0  0  0  0  0  0  0  0  0  0
    5.2679    6.2381    2.4989 C   0  0  0  0  0  0  0  0  0  0  0  0
    3.9905    6.5179    2.9736 C   0  0  0  0  0  0  0  0  0  0  0  0
    3.7582    6.4880    4.2930 F   0  0  0  0  0  0  0  0  0  0  0  0
    2.9622    6.8180    2.0883 C   0  0  0  0  0  0  0  0  0  0  0  0
    1.7336    7.0904    2.5493 F   0  0  0  0  0  0  0  0  0  0  0  0
    3.1903    6.8241    0.7161 C   0  0  0  0  0  0  0  0  0  0  0  0
    2.3541   -2.1277   -1.4068 H   0  0  0  0  0  0  0  0  0  0  0  0
    3.6554   -1.1410   -2.1302 H   0  0  0  0  0  0  0  0  0  0  0  0
    1.9350   -0.6610   -2.3360 H   0  0  0  0  0  0  0  0  0  0  0  0
    1.2409    2.1620   -1.0009 H   0  0  0  0  0  0  0  0  0  0  0  0
    1.9560    4.4102   -1.7313 H   0  0  0  0  0  0  0  0  0  0  0  0
    6.0850    3.2793   -1.1967 H   0  0  0  0  0  0  0  0  0  0  0  0
    5.3813    1.0266   -0.4681 H   0  0  0  0  0  0  0  0  0  0  0  0
    6.1058    8.0094   -1.5631 H   0  0  0  0  0  0  0  0  0  0  0  0
    4.4609    8.3150   -2.1862 H   0  0  0  0  0  0  0  0  0  0  0  0
    7.4481    6.0750   -4.3053 H   0  0  0  0  0  0  0  0  0  0  0  0
    7.7247    7.5657   -3.3091 H   0  0  0  0  0  0  0  0  0  0  0  0
    5.6159    7.2550   -5.5658 H   0  0  0  0  0  0  0  0  0  0  0  0
    5.8941    8.7497   -4.5677 H   0  0  0  0  0  0  0  0  0  0  0  0
    5.5084    4.7576   -3.7943 H   0  0  0  0  0  0  0  0  0  0  0  0
    3.9646    5.6248   -4.0173 H   0  0  0  0  0  0  0  0  0  0  0  0
    6.5003    6.0000    0.7520 H   0  0  0  0  0  0  0  0  0  0  0  0
    6.0611    6.0004    3.2008 H   0  0  0  0  0  0  0  0  0  0  0  0
    2.3669    7.0412    0.0430 H   0  0  0  0  0  0  0  0  0  0  0  0
  1  2  1  0  0  0  0
  1 26  1  0  0  0  0
  1 27  1  0  0  0  0
  1 28  1  0  0  0  0
  2  3  2  0  0  0  0
  2  4  2  0  0  0  0
  2  5  1  0  0  0  0
  5  6  1  0  0  0  0
  5 10  2  0  0  0  0
  6  7  2  0  0  0  0
  6 29  1  0  0  0  0
  7  8  1  0  0  0  0
  7 30  1  0  0  0  0
  8  9  2  0  0  0  0
  8 11  1  0  0  0  0
  9 10  1  0  0  0  0
  9 31  1  0  0  0  0
 10 32  1  0  0  0  0
 11 12  2  0  0  0  0
 11 17  1  0  0  0  0
 12 13  1  0  0  0  0
 12 18  1  0  0  0  0
 13 14  1  0  0  0  0
 13 33  1  0  0  0  0
 13 34  1  0  0  0  0
 14 15  1  0  0  0  0
 14 16  1  0  0  0  0
 14 17  1  0  0  0  0
 15 16  1  0  0  0  0
 15 35  1  0  0  0  0
 15 36  1  0  0  0  0
 16 37  1  0  0  0  0
 16 38  1  0  0  0  0
 17 39  1  0  0  0  0
 17 40  1  0  0  0  0
 18 19  1  0  0  0  0
 18 25  2  0  0  0  0
 19 20  2  0  0  0  0
 19 41  1  0  0  0  0
 20 21  1  0  0  0  0
 20 42  1  0  0  0  0
 21 22  1  0  0  0  0
 21 23  2  0  0  0  0
 23 24  1  0  0  0  0
 23 25  1  0  0  0  0
 25 43  1  0  0  0  0
M  END
$$$$
