
 OpenBabel07142516483D

 50 53  0  0  0  0  0  0  0  0999 V2000
    4.3320   -1.3131   -0.9989 C   0  0  0  0  0  0  0  0  0  0  0  0
    3.0812   -0.3242   -0.2212 S   0  0  0  0  0  0  0  0  0  0  0  0
    3.2385    1.0437   -0.6774 O   0  0  0  0  0  0  0  0  0  0  0  0
    1.8129   -1.0146   -0.3553 O   0  0  0  0  0  0  0  0  0  0  0  0
    3.5355   -0.3701    1.4991 C   0  0  0  0  0  0  0  0  0  0  0  0
    4.3972    0.6035    2.0122 C   0  0  0  0  0  0  0  0  0  0  0  0
    4.7436    0.5676    3.3649 C   0  0  0  0  0  0  0  0  0  0  0  0
    4.2234   -0.4288    4.2052 C   0  0  0  0  0  0  0  0  0  0  0  0
    3.3451   -1.3854    3.6805 C   0  0  0  0  0  0  0  0  0  0  0  0
    2.9943   -1.3547    2.3288 C   0  0  0  0  0  0  0  0  0  0  0  0
    4.6052   -0.4733    5.6292 C   0  0  0  0  0  0  0  0  0  0  0  0
    5.7667   -1.2915    6.0324 C   0  0  0  0  0  0  0  0  0  0  0  0
    6.1973   -1.4830    7.2348 N   0  0  0  0  0  0  0  0  0  0  0  0
    5.5336   -0.8259    8.2488 N   0  0  0  0  0  0  0  0  0  0  0  0
    6.1328   -0.9268    9.5800 C   0  0  0  0  0  0  0  0  0  0  0  0
    5.6544   -2.0984   10.4127 C   0  0  0  0  0  0  0  0  0  0  0  0
    6.2841   -3.3492   10.3178 C   0  0  0  0  0  0  0  0  0  0  0  0
    5.9300   -4.3928   11.1751 C   0  0  0  0  0  0  0  0  0  0  0  0
    4.9321   -4.2074   12.1308 C   0  0  0  0  0  0  0  0  0  0  0  0
    4.2747   -2.9819   12.2140 C   0  0  0  0  0  0  0  0  0  0  0  0
    4.6253   -1.9355   11.3555 C   0  0  0  0  0  0  0  0  0  0  0  0
    4.4893    0.0693    8.0301 C   0  0  0  0  0  0  0  0  0  0  0  0
    4.0167    0.7897    8.9090 O   0  0  0  0  0  0  0  0  0  0  0  0
    3.9478    0.1446    6.6288 C   0  0  0  0  0  0  0  0  0  0  0  0
    2.6869    0.8723    6.3844 C   0  0  0  0  0  0  0  0  0  0  0  0
    1.4656    0.1909    6.5256 C   0  0  0  0  0  0  0  0  0  0  0  0
    0.2581    0.8422    6.2660 C   0  0  0  0  0  0  0  0  0  0  0  0
    0.2704    2.1719    5.8699 C   0  0  0  0  0  0  0  0  0  0  0  0
   -0.8886    2.7977    5.6195 F   0  0  0  0  0  0  0  0  0  0  0  0
    1.4687    2.8680    5.7302 C   0  0  0  0  0  0  0  0  0  0  0  0
    2.6788    2.2185    5.9893 C   0  0  0  0  0  0  0  0  0  0  0  0
    4.1145   -1.3560   -2.0684 H   0  0  0  0  0  0  0  0  0  0  0  0
    4.3069   -2.3190   -0.5756 H   0  0  0  0  0  0  0  0  0  0  0  0
    5.3062   -0.8479   -0.8374 H   0  0  0  0  0  0  0  0  0  0  0  0
    4.7919    1.3921    1.3739 H   0  0  0  0  0  0  0  0  0  0  0  0
    5.4148    1.3289    3.7584 H   0  0  0  0  0  0  0  0  0  0  0  0
    2.9174   -2.1556    4.3216 H   0  0  0  0  0  0  0  0  0  0  0  0
    2.2965   -2.0927    1.9387 H   0  0  0  0  0  0  0  0  0  0  0  0
    6.2992   -1.7973    5.2090 H   0  0  0  0  0  0  0  0  0  0  0  0
    5.9594    0.0030   10.1352 H   0  0  0  0  0  0  0  0  0  0  0  0
    7.2222   -0.9938    9.4569 H   0  0  0  0  0  0  0  0  0  0  0  0
    7.0783   -3.5047    9.5906 H   0  0  0  0  0  0  0  0  0  0  0  0
    6.4454   -5.3495   11.1116 H   0  0  0  0  0  0  0  0  0  0  0  0
    4.6723   -5.0128   12.8134 H   0  0  0  0  0  0  0  0  0  0  0  0
    3.4977   -2.8331   12.9587 H   0  0  0  0  0  0  0  0  0  0  0  0
    4.1137   -0.9796   11.4445 H   0  0  0  0  0  0  0  0  0  0  0  0
    1.4483   -0.8503    6.8407 H   0  0  0  0  0  0  0  0  0  0  0  0
   -0.6886    0.3204    6.3723 H   0  0  0  0  0  0  0  0  0  0  0  0
    1.4488    3.9077    5.4239 H   0  0  0  0  0  0  0  0  0  0  0  0
    3.6098    2.7695    5.8834 H   0  0  0  0  0  0  0  0  0  0  0  0
  1  2  1  0  0  0  0
  1 32  1  0  0  0  0
  1 33  1  0  0  0  0
  1 34  1  0  0  0  0
  2  3  2  0  0  0  0
  2  4  2  0  0  0  0
  2  5  1  0  0  0  0
  5  6  1  0  0  0  0
  5 10  2  0  0  0  0
  6  7  2  0  0  0  0
  6 35  1  0  0  0  0
  7  8  1  0  0  0  0
  7 36  1  0  0  0  0
  8  9  2  0  0  0  0
  8 11  1  0  0  0  0
  9 10  1  0  0  0  0
  9 37  1  0  0  0  0
 10 38  1  0  0  0  0
 11 12  1  0  0  0  0
 11 24  2  0  0  0  0
 12 13  2  0  0  0  0
 12 39  1  0  0  0  0
 13 14  1  0  0  0  0
 14 15  1  0  0  0  0
 14 22  1  0  0  0  0
 15 16  1  0  0  0  0
 15 40  1  0  0  0  0
 15 41  1  0  0  0  0
 16 17  1  0  0  0  0
 16 21  2  0  0  0  0
 17 18  2  0  0  0  0
 17 42  1  0  0  0  0
 18 19  1  0  0  0  0
 18 43  1  0  0  0  0
 19 20  2  0  0  0  0
 19 44  1  0  0  0  0
 20 21  1  0  0  0  0
 20 45  1  0  0  0  0
 21 46  1  0  0  0  0
 22 23  2  0  0  0  0
 22 24  1  0  0  0  0
 24 25  1  0  0  0  0
 25 26  1  0  0  0  0
 25 31  2  0  0  0  0
 26 27  2  0  0  0  0
 26 47  1  0  0  0  0
 27 28  1  0  0  0  0
 27 48  1  0  0  0  0
 28 29  1  0  0  0  0
 28 30  2  0  0  0  0
 30 31  1  0  0  0  0
 30 49  1  0  0  0  0
 31 50  1  0  0  0  0
M  END
$$$$
