
 OpenBabel07142517503D

 59 61  0  0  1  0  0  0  0  0999 V2000
    0.9905    0.0817    0.0648 C   0  0  0  0  0  0  0  0  0  0  0  0
    2.4884    0.0335    0.0153 C   0  0  0  0  0  0  0  0  0  0  0  0
    3.3530    1.1256    0.0415 C   0  0  0  0  0  0  0  0  0  0  0  0
    4.6646    0.5906    0.0751 C   0  0  0  0  0  0  0  0  0  0  0  0
    4.6061   -0.7979    0.0611 C   0  0  0  0  0  0  0  0  0  0  0  0
    5.7669   -1.7217    0.0021 C   0  0  0  0  0  0  0  0  0  0  0  0
    6.9578   -1.4073    0.6783 C   0  0  0  0  0  0  0  0  0  0  0  0
    8.0477   -2.2910    0.6815 C   0  0  0  0  0  0  0  0  0  0  0  0
    7.9372   -3.5188    0.0343 C   0  0  0  0  0  0  0  0  0  0  0  0
    6.7883   -3.8332   -0.6856 C   0  0  0  0  0  0  0  0  0  0  0  0
    5.7277   -2.9203   -0.7292 C   0  0  0  0  0  0  0  0  0  0  0  0
    9.2954   -4.6660    0.0586 S   0  0  0  0  0  0  0  0  0  0  0  0
    8.9790   -5.6447    1.5023 C   0  0  0  0  0  0  0  0  0  0  0  0
    9.1631   -5.5234   -1.1038 O   0  0  0  0  0  0  0  0  0  0  0  0
   10.5079   -3.9030    0.2876 O   0  0  0  0  0  0  0  0  0  0  0  0
    3.2413   -1.1485    0.0738 N   0  0  0  0  0  0  0  0  0  0  0  0
    2.6948   -2.4719    0.1948 C   0  0  0  0  0  0  0  0  0  0  0  0
    1.5768   -2.8576   -0.5608 C   0  0  0  0  0  0  0  0  0  0  0  0
    1.0580   -4.1528   -0.4605 C   0  0  0  0  0  0  0  0  0  0  0  0
    1.6802   -5.0884    0.3600 C   0  0  0  0  0  0  0  0  0  0  0  0
    2.7987   -4.7134    1.0929 C   0  0  0  0  0  0  0  0  0  0  0  0
    3.4238   -5.6248    1.8500 F   0  0  0  0  0  0  0  0  0  0  0  0
    3.2933   -3.4126    1.0431 C   0  0  0  0  0  0  0  0  0  0  0  0
    2.9491    2.5773    0.1036 C   0  0  3  0  0  0  0  0  0  0  0  0
    2.7260    2.9127    1.5272 N   0  0  0  0  0  0  0  0  0  0  0  0
    3.9729    3.5542   -0.4986 C   0  0  0  0  0  0  0  0  0  0  0  0
    4.9022    4.0651    0.1185 O   0  0  0  0  0  0  0  0  0  0  0  0
    3.6676    3.8285   -1.8039 O   0  0  0  0  0  0  0  0  0  0  0  0
    4.2004    5.0584   -2.3170 C   0  0  0  0  0  0  0  0  0  0  0  0
    5.6875    5.0068   -2.6403 C   0  0  0  0  0  0  0  0  0  0  0  0
    6.0243    3.9607   -3.6949 C   0  0  0  0  0  0  0  0  0  0  0  0
    7.4358    4.0044   -3.8961 O   0  0  0  0  0  0  0  0  0  0  0  0
    7.8770    3.0768   -4.8694 N   0  3  0  0  0  0  0  0  0  0  0  0
    7.0188    2.3879   -5.4205 O   0  5  0  0  0  0  0  0  0  0  0  0
    9.0943    3.1044   -5.0348 O   0  0  0  0  0  0  0  0  0  0  0  0
    0.6240    1.0994    0.2275 H   0  0  0  0  0  0  0  0  0  0  0  0
    0.6017   -0.5263    0.8869 H   0  0  0  0  0  0  0  0  0  0  0  0
    0.5531   -0.2431   -0.8822 H   0  0  0  0  0  0  0  0  0  0  0  0
    5.5826    1.1680    0.0953 H   0  0  0  0  0  0  0  0  0  0  0  0
    7.0570   -0.4652    1.2183 H   0  0  0  0  0  0  0  0  0  0  0  0
    8.9660   -2.0090    1.1959 H   0  0  0  0  0  0  0  0  0  0  0  0
    6.6980   -4.7791   -1.2176 H   0  0  0  0  0  0  0  0  0  0  0  0
    4.8558   -3.1808   -1.3243 H   0  0  0  0  0  0  0  0  0  0  0  0
    8.0118   -6.1432    1.3942 H   0  0  0  0  0  0  0  0  0  0  0  0
    8.9852   -4.9970    2.3796 H   0  0  0  0  0  0  0  0  0  0  0  0
    9.7718   -6.3945    1.5863 H   0  0  0  0  0  0  0  0  0  0  0  0
    1.1207   -2.1913   -1.2855 H   0  0  0  0  0  0  0  0  0  0  0  0
    0.1849   -4.4349   -1.0444 H   0  0  0  0  0  0  0  0  0  0  0  0
    1.3084   -6.1062    0.4236 H   0  0  0  0  0  0  0  0  0  0  0  0
    4.1483   -3.1676    1.6651 H   0  0  0  0  0  0  0  0  0  0  0  0
    2.0011    2.7398   -0.4217 H   0  0  0  0  0  0  0  0  0  0  0  0
    3.6299    2.8539    2.0013 H   0  0  0  0  0  0  0  0  0  0  0  0
    2.1367    2.1978    1.9470 H   0  0  0  0  0  0  0  0  0  0  0  0
    3.9865    5.8681   -1.6085 H   0  0  0  0  0  0  0  0  0  0  0  0
    3.6347    5.2871   -3.2274 H   0  0  0  0  0  0  0  0  0  0  0  0
    6.2808    4.8011   -1.7433 H   0  0  0  0  0  0  0  0  0  0  0  0
    6.0150    5.9938   -2.9898 H   0  0  0  0  0  0  0  0  0  0  0  0
    5.5011    4.2067   -4.6272 H   0  0  0  0  0  0  0  0  0  0  0  0
    5.7234    2.9666   -3.3445 H   0  0  0  0  0  0  0  0  0  0  0  0
  1  2  1  0  0  0  0
  1 36  1  0  0  0  0
  1 37  1  0  0  0  0
  1 38  1  0  0  0  0
  2  3  2  0  0  0  0
  2 16  1  0  0  0  0
  3  4  1  0  0  0  0
  3 24  1  0  0  0  0
  4  5  2  0  0  0  0
  4 39  1  0  0  0  0
  5  6  1  0  0  0  0
  5 16  1  0  0  0  0
  6  7  1  0  0  0  0
  6 11  2  0  0  0  0
  7  8  2  0  0  0  0
  7 40  1  0  0  0  0
  8  9  1  0  0  0  0
  8 41  1  0  0  0  0
  9 10  2  0  0  0  0
  9 12  1  0  0  0  0
 10 11  1  0  0  0  0
 10 42  1  0  0  0  0
 11 43  1  0  0  0  0
 12 13  1  0  0  0  0
 12 14  2  0  0  0  0
 12 15  2  0  0  0  0
 13 44  1  0  0  0  0
 13 45  1  0  0  0  0
 13 46  1  0  0  0  0
 16 17  1  0  0  0  0
 17 18  1  0  0  0  0
 17 23  2  0  0  0  0
 18 19  2  0  0  0  0
 18 47  1  0  0  0  0
 19 20  1  0  0  0  0
 19 48  1  0  0  0  0
 20 21  2  0  0  0  0
 20 49  1  0  0  0  0
 21 22  1  0  0  0  0
 21 23  1  0  0  0  0
 23 50  1  0  0  0  0
 24 25  1  0  0  0  0
 24 26  1  0  0  0  0
 24 51  1  0  0  0  0
 25 52  1  0  0  0  0
 25 53  1  0  0  0  0
 26 27  2  0  0  0  0
 26 28  1  0  0  0  0
 28 29  1  0  0  0  0
 29 30  1  0  0  0  0
 29 54  1  0  0  0  0
 29 55  1  0  0  0  0
 30 31  1  0  0  0  0
 30 56  1  0  0  0  0
 30 57  1  0  0  0  0
 31 32  1  0  0  0  0
 31 58  1  0  0  0  0
 31 59  1  0  0  0  0
 32 33  1  0  0  0  0
 33 34  1  0  0  0  0
 33 35  2  0  0  0  0
M  CHG  2  33   1  34  -1
M  END
$$$$
