
 OpenBabel07142515513D

 40 42  0  0  0  0  0  0  0  0999 V2000
    2.2779   -0.1874   -1.2059 C   0  0  0  0  0  0  0  0  0  0  0  0
    0.9165   -0.1221   -0.5842 C   0  0  0  0  0  0  0  0  0  0  0  0
    0.3268   -1.2627   -0.0310 C   0  0  0  0  0  0  0  0  0  0  0  0
   -0.9639   -1.2014    0.4815 C   0  0  0  0  0  0  0  0  0  0  0  0
   -1.6748   -0.0005    0.4408 C   0  0  0  0  0  0  0  0  0  0  0  0
   -1.0813    1.1785   -0.0343 C   0  0  0  0  0  0  0  0  0  0  0  0
    0.2135    1.0941   -0.5692 C   0  0  0  0  0  0  0  0  0  0  0  0
   -1.7944    2.4736   -0.0112 C   0  0  0  0  0  0  0  0  0  0  0  0
   -1.7067    3.5209   -0.9136 C   0  0  0  0  0  0  0  0  0  0  0  0
   -2.7050    4.4530   -0.5480 C   0  0  0  0  0  0  0  0  0  0  0  0
   -3.4113    3.9948    0.4990 N   0  0  0  0  0  0  0  0  0  0  0  0
   -2.7435    2.8891    0.9236 N   0  0  0  0  0  0  0  0  0  0  0  0
   -3.0608    2.3492    2.2006 C   0  0  0  0  0  0  0  0  0  0  0  0
   -4.3741    2.4603    2.6813 C   0  0  0  0  0  0  0  0  0  0  0  0
   -4.7197    1.8813    3.9038 C   0  0  0  0  0  0  0  0  0  0  0  0
   -3.7450    1.2130    4.6508 C   0  0  0  0  0  0  0  0  0  0  0  0
   -2.4241    1.1406    4.2027 C   0  0  0  0  0  0  0  0  0  0  0  0
   -2.0808    1.7157    2.9789 C   0  0  0  0  0  0  0  0  0  0  0  0
   -4.1756    0.5056    6.2129 S   0  0  0  0  0  0  0  0  0  0  0  0
   -4.6695   -1.0350    5.7628 N   0  0  0  0  0  0  0  0  0  0  0  0
   -2.9776    0.3229    6.9990 O   0  0  0  0  0  0  0  0  0  0  0  0
   -5.3502    1.1667    6.7277 O   0  0  0  0  0  0  0  0  0  0  0  0
   -2.9980    5.7701   -1.2155 C   0  0  0  0  0  0  0  0  0  0  0  0
   -2.1575    6.0010   -2.2632 F   0  0  0  0  0  0  0  0  0  0  0  0
   -4.2601    5.8381   -1.7144 F   0  0  0  0  0  0  0  0  0  0  0  0
   -2.8454    6.8226   -0.3682 F   0  0  0  0  0  0  0  0  0  0  0  0
    2.7120   -1.1910   -1.1204 H   0  0  0  0  0  0  0  0  0  0  0  0
    2.9572    0.5128   -0.7066 H   0  0  0  0  0  0  0  0  0  0  0  0
    2.2190    0.0619   -2.2689 H   0  0  0  0  0  0  0  0  0  0  0  0
    0.8626   -2.2087   -0.0082 H   0  0  0  0  0  0  0  0  0  0  0  0
   -1.4241   -2.0873    0.9127 H   0  0  0  0  0  0  0  0  0  0  0  0
   -2.6947   -0.0051    0.8162 H   0  0  0  0  0  0  0  0  0  0  0  0
    0.6939    1.9786   -0.9828 H   0  0  0  0  0  0  0  0  0  0  0  0
   -1.0385    3.5911   -1.7623 H   0  0  0  0  0  0  0  0  0  0  0  0
   -5.1436    2.9596    2.0938 H   0  0  0  0  0  0  0  0  0  0  0  0
   -5.7455    1.9479    4.2591 H   0  0  0  0  0  0  0  0  0  0  0  0
   -1.6595    0.6413    4.7943 H   0  0  0  0  0  0  0  0  0  0  0  0
   -1.0413    1.6718    2.6609 H   0  0  0  0  0  0  0  0  0  0  0  0
   -4.0608   -1.7307    6.1948 H   0  0  0  0  0  0  0  0  0  0  0  0
   -5.6579   -1.1570    5.9854 H   0  0  0  0  0  0  0  0  0  0  0  0
  1  2  1  0  0  0  0
  1 27  1  0  0  0  0
  1 28  1  0  0  0  0
  1 29  1  0  0  0  0
  2  3  1  0  0  0  0
  2  7  2  0  0  0  0
  3  4  2  0  0  0  0
  3 30  1  0  0  0  0
  4  5  1  0  0  0  0
  4 31  1  0  0  0  0
  5  6  2  0  0  0  0
  5 32  1  0  0  0  0
  6  7  1  0  0  0  0
  6  8  1  0  0  0  0
  7 33  1  0  0  0  0
  8  9  2  0  0  0  0
  8 12  1  0  0  0  0
  9 10  1  0  0  0  0
  9 34  1  0  0  0  0
 10 11  2  0  0  0  0
 10 23  1  0  0  0  0
 11 12  1  0  0  0  0
 12 13  1  0  0  0  0
 13 14  1  0  0  0  0
 13 18  2  0  0  0  0
 14 15  2  0  0  0  0
 14 35  1  0  0  0  0
 15 16  1  0  0  0  0
 15 36  1  0  0  0  0
 16 17  2  0  0  0  0
 16 19  1  0  0  0  0
 17 18  1  0  0  0  0
 17 37  1  0  0  0  0
 18 38  1  0  0  0  0
 19 20  1  0  0  0  0
 19 21  2  0  0  0  0
 19 22  2  0  0  0  0
 20 39  1  0  0  0  0
 20 40  1  0  0  0  0
 23 24  1  0  0  0  0
 23 25  1  0  0  0  0
 23 26  1  0  0  0  0
M  END
$$$$
