
 OpenBabel07142515543D

 41 43  0  0  0  0  0  0  0  0999 V2000
    2.3611    0.8109    0.1622 C   0  0  0  0  0  0  0  0  0  0  0  0
    3.6706   -0.3655    0.3727 S   0  0  0  0  0  0  0  0  0  0  0  0
    4.8711    0.3567    0.7419 O   0  0  0  0  0  0  0  0  0  0  0  0
    3.1745   -1.4541    1.1939 O   0  0  0  0  0  0  0  0  0  0  0  0
    3.9243   -1.0127   -1.2664 C   0  0  0  0  0  0  0  0  0  0  0  0
    4.8880   -0.4321   -2.0943 C   0  0  0  0  0  0  0  0  0  0  0  0
    5.1302   -0.9739   -3.3591 C   0  0  0  0  0  0  0  0  0  0  0  0
    4.3967   -2.0864   -3.7975 C   0  0  0  0  0  0  0  0  0  0  0  0
    3.4511   -2.6794   -2.9467 C   0  0  0  0  0  0  0  0  0  0  0  0
    3.2127   -2.1406   -1.6800 C   0  0  0  0  0  0  0  0  0  0  0  0
    4.6142   -2.5988   -5.1076 N   0  0  0  0  0  0  0  0  0  0  0  0
    5.8420   -2.6426   -5.7340 C   0  0  0  0  0  0  0  0  0  0  0  0
    5.6655   -3.3396   -6.9132 C   0  0  0  0  0  0  0  0  0  0  0  0
    4.3266   -3.6586   -7.0507 N   0  0  0  0  0  0  0  0  0  0  0  0
    3.6914   -3.1366   -6.0114 C   0  0  0  0  0  0  0  0  0  0  0  0
    2.2214   -3.0645   -5.9238 C   0  0  0  0  0  0  0  0  0  0  0  0
    1.4391   -4.0745   -6.4971 C   0  0  0  0  0  0  0  0  0  0  0  0
    0.0438   -4.0331   -6.4163 C   0  0  0  0  0  0  0  0  0  0  0  0
   -0.5899   -2.9872   -5.7441 C   0  0  0  0  0  0  0  0  0  0  0  0
    0.1660   -1.9526   -5.1826 C   0  0  0  0  0  0  0  0  0  0  0  0
    1.5634   -1.9838   -5.3196 C   0  0  0  0  0  0  0  0  0  0  0  0
   -0.4678   -0.8260   -4.4075 C   0  0  0  0  0  0  0  0  0  0  0  0
   -1.8274   -0.8596   -4.3926 F   0  0  0  0  0  0  0  0  0  0  0  0
   -0.0789   -0.8253   -3.0992 F   0  0  0  0  0  0  0  0  0  0  0  0
   -0.1236    0.3998   -4.8909 F   0  0  0  0  0  0  0  0  0  0  0  0
    6.6954   -3.7205   -7.9377 C   0  0  0  0  0  0  0  0  0  0  0  0
    7.9365   -3.2821   -7.5893 F   0  0  0  0  0  0  0  0  0  0  0  0
    6.7929   -5.0655   -8.0996 F   0  0  0  0  0  0  0  0  0  0  0  0
    6.4284   -3.1869   -9.1583 F   0  0  0  0  0  0  0  0  0  0  0  0
    2.1557    1.2619    1.1366 H   0  0  0  0  0  0  0  0  0  0  0  0
    1.4709    0.2954   -0.2018 H   0  0  0  0  0  0  0  0  0  0  0  0
    2.6817    1.5808   -0.5414 H   0  0  0  0  0  0  0  0  0  0  0  0
    5.4566    0.4361   -1.7649 H   0  0  0  0  0  0  0  0  0  0  0  0
    5.8619   -0.4845   -3.9995 H   0  0  0  0  0  0  0  0  0  0  0  0
    2.9076   -3.5770   -3.2370 H   0  0  0  0  0  0  0  0  0  0  0  0
    2.4854   -2.6146   -1.0231 H   0  0  0  0  0  0  0  0  0  0  0  0
    6.7421   -2.2595   -5.2734 H   0  0  0  0  0  0  0  0  0  0  0  0
    1.9169   -4.9033   -7.0196 H   0  0  0  0  0  0  0  0  0  0  0  0
   -0.5470   -4.8236   -6.8734 H   0  0  0  0  0  0  0  0  0  0  0  0
   -1.6764   -2.9809   -5.6687 H   0  0  0  0  0  0  0  0  0  0  0  0
    2.1325   -1.1442   -4.9235 H   0  0  0  0  0  0  0  0  0  0  0  0
  1  2  1  0  0  0  0
  1 30  1  0  0  0  0
  1 31  1  0  0  0  0
  1 32  1  0  0  0  0
  2  3  2  0  0  0  0
  2  4  2  0  0  0  0
  2  5  1  0  0  0  0
  5  6  1  0  0  0  0
  5 10  2  0  0  0  0
  6  7  2  0  0  0  0
  6 33  1  0  0  0  0
  7  8  1  0  0  0  0
  7 34  1  0  0  0  0
  8  9  2  0  0  0  0
  8 11  1  0  0  0  0
  9 10  1  0  0  0  0
  9 35  1  0  0  0  0
 10 36  1  0  0  0  0
 11 12  1  0  0  0  0
 11 15  1  0  0  0  0
 12 13  2  0  0  0  0
 12 37  1  0  0  0  0
 13 14  1  0  0  0  0
 13 26  1  0  0  0  0
 14 15  2  0  0  0  0
 15 16  1  0  0  0  0
 16 17  1  0  0  0  0
 16 21  2  0  0  0  0
 17 18  2  0  0  0  0
 17 38  1  0  0  0  0
 18 19  1  0  0  0  0
 18 39  1  0  0  0  0
 19 20  2  0  0  0  0
 19 40  1  0  0  0  0
 20 21  1  0  0  0  0
 20 22  1  0  0  0  0
 21 41  1  0  0  0  0
 22 23  1  0  0  0  0
 22 24  1  0  0  0  0
 22 25  1  0  0  0  0
 26 27  1  0  0  0  0
 26 28  1  0  0  0  0
 26 29  1  0  0  0  0
M  END
$$$$
