
 OpenBabel07142517433D

 35 37  0  0  0  0  0  0  0  0999 V2000
    3.9599    0.8074   -0.9659 C   0  0  0  0  0  0  0  0  0  0  0  0
    2.7066    0.0138    0.0047 S   0  0  0  0  0  0  0  0  0  0  0  0
    1.4588    0.7198   -0.1975 O   0  0  0  0  0  0  0  0  0  0  0  0
    2.8011   -1.4174   -0.2268 O   0  0  0  0  0  0  0  0  0  0  0  0
    3.2241    0.3181    1.6795 C   0  0  0  0  0  0  0  0  0  0  0  0
    2.8505    1.4998    2.3193 C   0  0  0  0  0  0  0  0  0  0  0  0
    3.2793    1.7378    3.6311 C   0  0  0  0  0  0  0  0  0  0  0  0
    4.0550    0.7910    4.3240 C   0  0  0  0  0  0  0  0  0  0  0  0
    4.3298   -0.4280    3.6864 C   0  0  0  0  0  0  0  0  0  0  0  0
    3.9523   -0.6545    2.3604 C   0  0  0  0  0  0  0  0  0  0  0  0
    4.5240    1.0787    5.6920 C   0  0  0  0  0  0  0  0  0  0  0  0
    3.8255    1.7407    6.6952 C   0  0  0  0  0  0  0  0  0  0  0  0
    4.4956    1.7439    7.8783 N   0  0  0  0  0  0  0  0  0  0  0  0
    5.6066    1.1023    7.6295 C   0  0  0  0  0  0  0  0  0  0  0  0
    6.8722    1.0067    8.7770 Cl  0  0  0  0  0  0  0  0  0  0  0  0
    5.7283    0.6816    6.3129 N   0  0  0  0  0  0  0  0  0  0  0  0
    6.8350    0.0005    5.7103 C   0  0  0  0  0  0  0  0  0  0  0  0
    7.5191   -1.0095    6.4035 C   0  0  0  0  0  0  0  0  0  0  0  0
    8.5452   -1.7252    5.7787 C   0  0  0  0  0  0  0  0  0  0  0  0
    8.8786   -1.4535    4.4541 C   0  0  0  0  0  0  0  0  0  0  0  0
   10.1017   -2.3727    3.6708 Cl  0  0  0  0  0  0  0  0  0  0  0  0
    8.2159   -0.4463    3.7580 C   0  0  0  0  0  0  0  0  0  0  0  0
    7.2141    0.2963    4.3918 C   0  0  0  0  0  0  0  0  0  0  0  0
    3.7211    0.6482   -2.0206 H   0  0  0  0  0  0  0  0  0  0  0  0
    4.9296    0.3614   -0.7362 H   0  0  0  0  0  0  0  0  0  0  0  0
    3.9606    1.8760   -0.7449 H   0  0  0  0  0  0  0  0  0  0  0  0
    2.2277    2.2365    1.8150 H   0  0  0  0  0  0  0  0  0  0  0  0
    2.9942    2.6750    4.1050 H   0  0  0  0  0  0  0  0  0  0  0  0
    4.8621   -1.2234    4.2052 H   0  0  0  0  0  0  0  0  0  0  0  0
    4.2236   -1.5923    1.8803 H   0  0  0  0  0  0  0  0  0  0  0  0
    2.8460    2.1975    6.6187 H   0  0  0  0  0  0  0  0  0  0  0  0
    7.2462   -1.3051    7.4152 H   0  0  0  0  0  0  0  0  0  0  0  0
    9.0665   -2.5084    6.3251 H   0  0  0  0  0  0  0  0  0  0  0  0
    8.4684   -0.2381    2.7218 H   0  0  0  0  0  0  0  0  0  0  0  0
    6.7375    1.0963    3.8296 H   0  0  0  0  0  0  0  0  0  0  0  0
  1  2  1  0  0  0  0
  1 24  1  0  0  0  0
  1 25  1  0  0  0  0
  1 26  1  0  0  0  0
  2  3  2  0  0  0  0
  2  4  2  0  0  0  0
  2  5  1  0  0  0  0
  5  6  1  0  0  0  0
  5 10  2  0  0  0  0
  6  7  2  0  0  0  0
  6 27  1  0  0  0  0
  7  8  1  0  0  0  0
  7 28  1  0  0  0  0
  8  9  2  0  0  0  0
  8 11  1  0  0  0  0
  9 10  1  0  0  0  0
  9 29  1  0  0  0  0
 10 30  1  0  0  0  0
 11 12  2  0  0  0  0
 11 16  1  0  0  0  0
 12 13  1  0  0  0  0
 12 31  1  0  0  0  0
 13 14  2  0  0  0  0
 14 15  1  0  0  0  0
 14 16  1  0  0  0  0
 16 17  1  0  0  0  0
 17 18  1  0  0  0  0
 17 23  2  0  0  0  0
 18 19  2  0  0  0  0
 18 32  1  0  0  0  0
 19 20  1  0  0  0  0
 19 33  1  0  0  0  0
 20 21  1  0  0  0  0
 20 22  2  0  0  0  0
 22 23  1  0  0  0  0
 22 34  1  0  0  0  0
 23 35  1  0  0  0  0
M  END
$$$$
