
 OpenBabel07142517083D

 46 49  0  0  0  0  0  0  0  0999 V2000
    1.3479    0.6951    0.1719 N   0  0  0  0  0  0  0  0  0  0  0  0
    2.7497   -0.2250    0.1099 S   0  0  0  0  0  0  0  0  0  0  0  0
    2.3477   -1.5342   -0.3625 O   0  0  0  0  0  0  0  0  0  0  0  0
    3.7248    0.5825   -0.5833 O   0  0  0  0  0  0  0  0  0  0  0  0
    3.1783   -0.3240    1.8186 C   0  0  0  0  0  0  0  0  0  0  0  0
    2.7239   -1.3844    2.6103 C   0  0  0  0  0  0  0  0  0  0  0  0
    3.1164   -1.4551    3.9512 C   0  0  0  0  0  0  0  0  0  0  0  0
    3.9632   -0.4783    4.4942 C   0  0  0  0  0  0  0  0  0  0  0  0
    4.4162    0.5727    3.6888 C   0  0  0  0  0  0  0  0  0  0  0  0
    4.0297    0.6480    2.3519 C   0  0  0  0  0  0  0  0  0  0  0  0
    4.4854   -0.6130    5.8503 C   0  0  0  0  0  0  0  0  0  0  0  0
    5.6150   -1.2613    6.1641 C   0  0  0  0  0  0  0  0  0  0  0  0
    5.7582   -1.1713    7.6308 C   0  0  0  0  0  0  0  0  0  0  0  0
    6.7097   -1.6371    8.2383 O   0  0  0  0  0  0  0  0  0  0  0  0
    4.6496   -0.4745    8.1185 N   0  0  0  0  0  0  0  0  0  0  0  0
    3.7981   -0.0309    7.0389 C   0  0  0  0  0  0  0  0  0  0  0  0
    4.3196   -0.3089    9.4903 C   0  0  0  0  0  0  0  0  0  0  0  0
    4.9285   -1.0976   10.4765 C   0  0  0  0  0  0  0  0  0  0  0  0
    4.5686   -0.9899   11.8231 C   0  0  0  0  0  0  0  0  0  0  0  0
    3.5989   -0.0718   12.2146 C   0  0  0  0  0  0  0  0  0  0  0  0
    3.1861   -0.0024   13.8890 Cl  0  0  0  0  0  0  0  0  0  0  0  0
    2.9964    0.7407   11.2505 C   0  0  0  0  0  0  0  0  0  0  0  0
    1.7979    1.9179   11.6606 Cl  0  0  0  0  0  0  0  0  0  0  0  0
    3.3499    0.6167    9.8968 C   0  0  0  0  0  0  0  0  0  0  0  0
    6.5257   -1.9756    5.2814 C   0  0  0  0  0  0  0  0  0  0  0  0
    7.5851   -1.3045    4.6558 C   0  0  0  0  0  0  0  0  0  0  0  0
    8.4226   -1.9902    3.7755 C   0  0  0  0  0  0  0  0  0  0  0  0
    8.1991   -3.3399    3.5258 C   0  0  0  0  0  0  0  0  0  0  0  0
    8.9983   -3.9941    2.6734 F   0  0  0  0  0  0  0  0  0  0  0  0
    7.1582   -4.0211    4.1458 C   0  0  0  0  0  0  0  0  0  0  0  0
    6.3200   -3.3389    5.0260 C   0  0  0  0  0  0  0  0  0  0  0  0
    0.6262    0.2556   -0.3978 H   0  0  0  0  0  0  0  0  0  0  0  0
    1.5476    1.6627   -0.0943 H   0  0  0  0  0  0  0  0  0  0  0  0
    2.0853   -2.1575    2.1899 H   0  0  0  0  0  0  0  0  0  0  0  0
    2.7839   -2.2967    4.5563 H   0  0  0  0  0  0  0  0  0  0  0  0
    5.1017    1.3193    4.0835 H   0  0  0  0  0  0  0  0  0  0  0  0
    4.4097    1.4535    1.7277 H   0  0  0  0  0  0  0  0  0  0  0  0
    3.7739    1.0629    6.9968 H   0  0  0  0  0  0  0  0  0  0  0  0
    2.7916   -0.4449    7.1657 H   0  0  0  0  0  0  0  0  0  0  0  0
    5.6731   -1.8499   10.2260 H   0  0  0  0  0  0  0  0  0  0  0  0
    5.0480   -1.6395   12.5522 H   0  0  0  0  0  0  0  0  0  0  0  0
    2.8692    1.2730    9.1777 H   0  0  0  0  0  0  0  0  0  0  0  0
    7.7636   -0.2496    4.8506 H   0  0  0  0  0  0  0  0  0  0  0  0
    9.2454   -1.4825    3.2824 H   0  0  0  0  0  0  0  0  0  0  0  0
    7.0060   -5.0753    3.9394 H   0  0  0  0  0  0  0  0  0  0  0  0
    5.5061   -3.8735    5.5107 H   0  0  0  0  0  0  0  0  0  0  0  0
  1  2  1  0  0  0  0
  1 32  1  0  0  0  0
  1 33  1  0  0  0  0
  2  3  2  0  0  0  0
  2  4  2  0  0  0  0
  2  5  1  0  0  0  0
  5  6  1  0  0  0  0
  5 10  2  0  0  0  0
  6  7  2  0  0  0  0
  6 34  1  0  0  0  0
  7  8  1  0  0  0  0
  7 35  1  0  0  0  0
  8  9  2  0  0  0  0
  8 11  1  0  0  0  0
  9 10  1  0  0  0  0
  9 36  1  0  0  0  0
 10 37  1  0  0  0  0
 11 12  2  0  0  0  0
 11 16  1  0  0  0  0
 12 13  1  0  0  0  0
 12 25  1  0  0  0  0
 13 14  2  0  0  0  0
 13 15  1  0  0  0  0
 15 16  1  0  0  0  0
 15 17  1  0  0  0  0
 16 38  1  0  0  0  0
 16 39  1  0  0  0  0
 17 18  1  0  0  0  0
 17 24  2  0  0  0  0
 18 19  2  0  0  0  0
 18 40  1  0  0  0  0
 19 20  1  0  0  0  0
 19 41  1  0  0  0  0
 20 21  1  0  0  0  0
 20 22  2  0  0  0  0
 22 23  1  0  0  0  0
 22 24  1  0  0  0  0
 24 42  1  0  0  0  0
 25 26  1  0  0  0  0
 25 31  2  0  0  0  0
 26 27  2  0  0  0  0
 26 43  1  0  0  0  0
 27 28  1  0  0  0  0
 27 44  1  0  0  0  0
 28 29  1  0  0  0  0
 28 30  2  0  0  0  0
 30 31  1  0  0  0  0
 30 45  1  0  0  0  0
 31 46  1  0  0  0  0
M  END
$$$$
