
 OpenBabel07142517433D

 58 61  0  0  0  0  0  0  0  0999 V2000
    1.3386    0.5439    0.5356 C   0  0  0  0  0  0  0  0  0  0  0  0
    2.4628   -0.1683    0.0285 O   0  0  0  0  0  0  0  0  0  0  0  0
    3.0221    0.3156   -1.1237 C   0  0  0  0  0  0  0  0  0  0  0  0
    2.5817    1.4250   -1.8277 C   0  0  0  0  0  0  0  0  0  0  0  0
    3.2379    1.8467   -2.9877 C   0  0  0  0  0  0  0  0  0  0  0  0
    4.3286    1.1016   -3.4793 C   0  0  0  0  0  0  0  0  0  0  0  0
    5.1146    1.2595   -4.6299 N   0  0  0  0  0  0  0  0  0  0  0  0
    4.8921    2.2219   -5.6546 C   0  0  0  0  0  0  0  0  0  0  0  0
    5.8695    2.6811   -6.2408 O   0  0  0  0  0  0  0  0  0  0  0  0
    3.5536    2.7290   -6.0551 C   0  0  0  0  0  0  0  0  0  0  0  0
    3.4159    4.0712   -6.4315 C   0  0  0  0  0  0  0  0  0  0  0  0
    2.1492    4.5880   -6.7155 C   0  0  0  0  0  0  0  0  0  0  0  0
    1.0286    3.7616   -6.6329 C   0  0  0  0  0  0  0  0  0  0  0  0
   -0.5387    4.4163   -6.9011 Cl  0  0  0  0  0  0  0  0  0  0  0  0
    1.1675    2.4102   -6.3185 C   0  0  0  0  0  0  0  0  0  0  0  0
    2.4339    1.8851   -6.0530 C   0  0  0  0  0  0  0  0  0  0  0  0
    6.1242    0.2907   -4.5983 C   0  0  0  0  0  0  0  0  0  0  0  0
    7.1230    0.0983   -5.6999 C   0  0  0  0  0  0  0  0  0  0  0  0
    5.9259   -0.5211   -3.4849 C   0  0  0  0  0  0  0  0  0  0  0  0
    6.6415   -1.7959   -3.1472 C   0  0  0  0  0  0  0  0  0  0  0  0
    8.1487   -1.7200   -3.0640 C   0  0  0  0  0  0  0  0  0  0  0  0
    8.8234   -2.5741   -3.6514 O   0  0  0  0  0  0  0  0  0  0  0  0
    8.6786   -0.7573   -2.2171 N   0  0  0  0  0  0  0  0  0  0  0  0
   10.0724   -0.7007   -1.9808 C   0  0  0  0  0  0  0  0  0  0  0  0
   10.9867   -0.8564   -3.0319 C   0  0  0  0  0  0  0  0  0  0  0  0
   12.3461   -1.0085   -2.7763 C   0  0  0  0  0  0  0  0  0  0  0  0
   12.7954   -0.9956   -1.4558 C   0  0  0  0  0  0  0  0  0  0  0  0
   11.9035   -0.7703   -0.4023 C   0  0  0  0  0  0  0  0  0  0  0  0
   10.5409   -0.5860   -0.6701 C   0  0  0  0  0  0  0  0  0  0  0  0
   14.4944   -1.4073   -1.1145 S   0  0  0  0  0  0  0  0  0  0  0  0
   15.3076    0.1629   -1.0820 C   0  0  0  0  0  0  0  0  0  0  0  0
   14.5468   -1.9601    0.2218 O   0  0  0  0  0  0  0  0  0  0  0  0
   15.0059   -2.1531   -2.2480 O   0  0  0  0  0  0  0  0  0  0  0  0
    4.8051   -0.0004   -2.7714 C   0  0  0  0  0  0  0  0  0  0  0  0
    4.1364   -0.3961   -1.5879 C   0  0  0  0  0  0  0  0  0  0  0  0
    1.0217    0.0611    1.4646 H   0  0  0  0  0  0  0  0  0  0  0  0
    0.4984    0.5016   -0.1662 H   0  0  0  0  0  0  0  0  0  0  0  0
    1.6007    1.5807    0.7739 H   0  0  0  0  0  0  0  0  0  0  0  0
    1.7210    2.0022   -1.5055 H   0  0  0  0  0  0  0  0  0  0  0  0
    2.8739    2.7388   -3.4862 H   0  0  0  0  0  0  0  0  0  0  0  0
    4.2881    4.7209   -6.4842 H   0  0  0  0  0  0  0  0  0  0  0  0
    2.0422    5.6360   -6.9851 H   0  0  0  0  0  0  0  0  0  0  0  0
    0.2946    1.7643   -6.2633 H   0  0  0  0  0  0  0  0  0  0  0  0
    2.5270    0.8291   -5.8086 H   0  0  0  0  0  0  0  0  0  0  0  0
    7.3257    0.9922   -6.2872 H   0  0  0  0  0  0  0  0  0  0  0  0
    6.7730   -0.6835   -6.3810 H   0  0  0  0  0  0  0  0  0  0  0  0
    8.0898   -0.2137   -5.2945 H   0  0  0  0  0  0  0  0  0  0  0  0
    6.4000   -2.5214   -3.9355 H   0  0  0  0  0  0  0  0  0  0  0  0
    6.2795   -2.2266   -2.2076 H   0  0  0  0  0  0  0  0  0  0  0  0
    8.0604   -0.3884   -1.5047 H   0  0  0  0  0  0  0  0  0  0  0  0
   10.6387   -0.9051   -4.0615 H   0  0  0  0  0  0  0  0  0  0  0  0
   13.0289   -1.1908   -3.6034 H   0  0  0  0  0  0  0  0  0  0  0  0
   12.2474   -0.7960    0.6310 H   0  0  0  0  0  0  0  0  0  0  0  0
    9.8504   -0.4656    0.1607 H   0  0  0  0  0  0  0  0  0  0  0  0
   14.8920    0.7590   -0.2675 H   0  0  0  0  0  0  0  0  0  0  0  0
   15.1688    0.6595   -2.0419 H   0  0  0  0  0  0  0  0  0  0  0  0
   16.3706   -0.0151   -0.9043 H   0  0  0  0  0  0  0  0  0  0  0  0
    4.4728   -1.2598   -1.0280 H   0  0  0  0  0  0  0  0  0  0  0  0
  1  2  1  0  0  0  0
  1 36  1  0  0  0  0
  1 37  1  0  0  0  0
  1 38  1  0  0  0  0
  2  3  1  0  0  0  0
  3  4  1  0  0  0  0
  3 35  2  0  0  0  0
  4  5  2  0  0  0  0
  4 39  1  0  0  0  0
  5  6  1  0  0  0  0
  5 40  1  0  0  0  0
  6  7  1  0  0  0  0
  6 34  2  0  0  0  0
  7  8  1  0  0  0  0
  7 17  1  0  0  0  0
  8  9  2  0  0  0  0
  8 10  1  0  0  0  0
 10 11  1  0  0  0  0
 10 16  2  0  0  0  0
 11 12  2  0  0  0  0
 11 41  1  0  0  0  0
 12 13  1  0  0  0  0
 12 42  1  0  0  0  0
 13 14  1  0  0  0  0
 13 15  2  0  0  0  0
 15 16  1  0  0  0  0
 15 43  1  0  0  0  0
 16 44  1  0  0  0  0
 17 18  1  0  0  0  0
 17 19  2  0  0  0  0
 18 45  1  0  0  0  0
 18 46  1  0  0  0  0
 18 47  1  0  0  0  0
 19 20  1  0  0  0  0
 19 34  1  0  0  0  0
 20 21  1  0  0  0  0
 20 48  1  0  0  0  0
 20 49  1  0  0  0  0
 21 22  2  0  0  0  0
 21 23  1  0  0  0  0
 23 24  1  0  0  0  0
 23 50  1  0  0  0  0
 24 25  1  0  0  0  0
 24 29  2  0  0  0  0
 25 26  2  0  0  0  0
 25 51  1  0  0  0  0
 26 27  1  0  0  0  0
 26 52  1  0  0  0  0
 27 28  2  0  0  0  0
 27 30  1  0  0  0  0
 28 29  1  0  0  0  0
 28 53  1  0  0  0  0
 29 54  1  0  0  0  0
 30 31  1  0  0  0  0
 30 32  2  0  0  0  0
 30 33  2  0  0  0  0
 31 55  1  0  0  0  0
 31 56  1  0  0  0  0
 31 57  1  0  0  0  0
 34 35  1  0  0  0  0
 35 58  1  0  0  0  0
M  END
$$$$
