
 OpenBabel07142517503D

 38 40  0  0  0  0  0  0  0  0999 V2000
    3.5102    0.9216   -0.3307 C   0  0  0  0  0  0  0  0  0  0  0  0
    2.2013    0.0392    0.4654 S   0  0  0  0  0  0  0  0  0  0  0  0
    1.9837    0.6312    1.7738 O   0  0  0  0  0  0  0  0  0  0  0  0
    1.1087   -0.1005   -0.4753 O   0  0  0  0  0  0  0  0  0  0  0  0
    2.8849   -1.5829    0.7291 C   0  0  0  0  0  0  0  0  0  0  0  0
    3.5588   -1.8669    1.9208 C   0  0  0  0  0  0  0  0  0  0  0  0
    4.0539   -3.1559    2.1465 C   0  0  0  0  0  0  0  0  0  0  0  0
    3.8794   -4.1530    1.1765 C   0  0  0  0  0  0  0  0  0  0  0  0
    3.1709   -3.8637   -0.0002 C   0  0  0  0  0  0  0  0  0  0  0  0
    2.6816   -2.5763   -0.2284 C   0  0  0  0  0  0  0  0  0  0  0  0
    4.4265   -5.4514    1.3880 N   0  0  0  0  0  0  0  0  0  0  0  0
    4.5098   -6.0752    2.6152 C   0  0  0  0  0  0  0  0  0  0  0  0
    4.8985   -7.3790    2.3740 C   0  0  0  0  0  0  0  0  0  0  0  0
    5.1590   -7.5278    1.0230 N   0  0  0  0  0  0  0  0  0  0  0  0
    4.9596   -6.3480    0.4551 C   0  0  0  0  0  0  0  0  0  0  0  0
    5.3393   -6.0467   -0.9383 C   0  0  0  0  0  0  0  0  0  0  0  0
    5.2547   -7.0490   -1.9153 C   0  0  0  0  0  0  0  0  0  0  0  0
    5.5514   -6.7690   -3.2535 C   0  0  0  0  0  0  0  0  0  0  0  0
    5.9181   -5.4783   -3.6357 C   0  0  0  0  0  0  0  0  0  0  0  0
    6.0356   -4.4859   -2.6694 C   0  0  0  0  0  0  0  0  0  0  0  0
    6.5141   -2.5378   -3.2148 I   0  0  0  0  0  0  0  0  0  0  0  0
    5.7921   -4.7776   -1.3269 C   0  0  0  0  0  0  0  0  0  0  0  0
    5.0419   -8.5079    3.3544 C   0  0  0  0  0  0  0  0  0  0  0  0
    4.7439   -8.1114    4.6237 F   0  0  0  0  0  0  0  0  0  0  0  0
    4.2114   -9.5456    3.0724 F   0  0  0  0  0  0  0  0  0  0  0  0
    6.3052   -9.0025    3.3931 F   0  0  0  0  0  0  0  0  0  0  0  0
    3.1471    1.9261   -0.5641 H   0  0  0  0  0  0  0  0  0  0  0  0
    3.7855    0.4055   -1.2512 H   0  0  0  0  0  0  0  0  0  0  0  0
    4.3642    0.9877    0.3480 H   0  0  0  0  0  0  0  0  0  0  0  0
    3.7010   -1.0988    2.6783 H   0  0  0  0  0  0  0  0  0  0  0  0
    4.6073   -3.3437    3.0648 H   0  0  0  0  0  0  0  0  0  0  0  0
    2.9669   -4.6297   -0.7472 H   0  0  0  0  0  0  0  0  0  0  0  0
    2.1330   -2.3666   -1.1460 H   0  0  0  0  0  0  0  0  0  0  0  0
    4.2012   -5.5949    3.5338 H   0  0  0  0  0  0  0  0  0  0  0  0
    4.9546   -8.0580   -1.6362 H   0  0  0  0  0  0  0  0  0  0  0  0
    5.4834   -7.5575   -3.9991 H   0  0  0  0  0  0  0  0  0  0  0  0
    6.1136   -5.2662   -4.6839 H   0  0  0  0  0  0  0  0  0  0  0  0
    5.9320   -3.9954   -0.5849 H   0  0  0  0  0  0  0  0  0  0  0  0
  1  2  1  0  0  0  0
  1 27  1  0  0  0  0
  1 28  1  0  0  0  0
  1 29  1  0  0  0  0
  2  3  2  0  0  0  0
  2  4  2  0  0  0  0
  2  5  1  0  0  0  0
  5  6  1  0  0  0  0
  5 10  2  0  0  0  0
  6  7  2  0  0  0  0
  6 30  1  0  0  0  0
  7  8  1  0  0  0  0
  7 31  1  0  0  0  0
  8  9  2  0  0  0  0
  8 11  1  0  0  0  0
  9 10  1  0  0  0  0
  9 32  1  0  0  0  0
 10 33  1  0  0  0  0
 11 12  1  0  0  0  0
 11 15  1  0  0  0  0
 12 13  2  0  0  0  0
 12 34  1  0  0  0  0
 13 14  1  0  0  0  0
 13 23  1  0  0  0  0
 14 15  2  0  0  0  0
 15 16  1  0  0  0  0
 16 17  1  0  0  0  0
 16 22  2  0  0  0  0
 17 18  2  0  0  0  0
 17 35  1  0  0  0  0
 18 19  1  0  0  0  0
 18 36  1  0  0  0  0
 19 20  2  0  0  0  0
 19 37  1  0  0  0  0
 20 21  1  0  0  0  0
 20 22  1  0  0  0  0
 22 38  1  0  0  0  0
 23 24  1  0  0  0  0
 23 25  1  0  0  0  0
 23 26  1  0  0  0  0
M  END
$$$$
