
 OpenBabel07142516143D

 41 43  0  0  0  0  0  0  0  0999 V2000
    1.0737   -0.1656   -0.0335 C   0  0  0  0  0  0  0  0  0  0  0  0
    2.5591   -0.0144   -0.0899 C   0  0  0  0  0  0  0  0  0  0  0  0
    3.1683    1.1679   -0.1924 C   0  0  0  0  0  0  0  0  0  0  0  0
    4.6327    1.1990   -0.3156 C   0  0  0  0  0  0  0  0  0  0  0  0
    5.1655    2.2545   -0.6437 O   0  0  0  0  0  0  0  0  0  0  0  0
    5.3839   -0.0762   -0.0376 C   0  0  0  0  0  0  0  0  0  0  0  0
    6.7777   -0.0860    0.0879 O   0  0  0  0  0  0  0  0  0  0  0  0
    7.4206    1.0493    0.5273 C   0  0  0  0  0  0  0  0  0  0  0  0
    6.9662    1.7850    1.6270 C   0  0  0  0  0  0  0  0  0  0  0  0
    7.5804    2.9965    1.9521 C   0  0  0  0  0  0  0  0  0  0  0  0
    8.6851    3.4260    1.2240 C   0  0  0  0  0  0  0  0  0  0  0  0
    9.2574    4.5975    1.5322 F   0  0  0  0  0  0  0  0  0  0  0  0
    9.2043    2.6609    0.1882 C   0  0  0  0  0  0  0  0  0  0  0  0
    8.5667    1.4732   -0.1567 C   0  0  0  0  0  0  0  0  0  0  0  0
    9.0538    0.7449   -1.1712 F   0  0  0  0  0  0  0  0  0  0  0  0
    4.6449   -1.2073    0.0151 C   0  0  0  0  0  0  0  0  0  0  0  0
    3.2535   -1.2034   -0.0648 O   0  0  0  0  0  0  0  0  0  0  0  0
    5.1661   -2.5943    0.1382 C   0  0  0  0  0  0  0  0  0  0  0  0
    4.3997   -3.5544    0.8340 C   0  0  0  0  0  0  0  0  0  0  0  0
    4.7392   -4.9076    0.8242 C   0  0  0  0  0  0  0  0  0  0  0  0
    5.8602   -5.3231    0.1094 C   0  0  0  0  0  0  0  0  0  0  0  0
    6.6754   -4.3925   -0.5365 C   0  0  0  0  0  0  0  0  0  0  0  0
    6.3202   -3.0364   -0.5294 C   0  0  0  0  0  0  0  0  0  0  0  0
    6.2281   -7.0567   -0.0053 S   0  0  0  0  0  0  0  0  0  0  0  0
    5.4036   -7.5396   -1.5017 C   0  0  0  0  0  0  0  0  0  0  0  0
    7.6579   -7.1906   -0.2126 O   0  0  0  0  0  0  0  0  0  0  0  0
    5.5725   -7.7201    1.1032 O   0  0  0  0  0  0  0  0  0  0  0  0
    0.5634    0.8031   -0.0311 H   0  0  0  0  0  0  0  0  0  0  0  0
    0.7782   -0.7047    0.8720 H   0  0  0  0  0  0  0  0  0  0  0  0
    0.7222   -0.7295   -0.9034 H   0  0  0  0  0  0  0  0  0  0  0  0
    2.6449    2.1135   -0.2408 H   0  0  0  0  0  0  0  0  0  0  0  0
    6.1000    1.4601    2.1939 H   0  0  0  0  0  0  0  0  0  0  0  0
    7.1861    3.6179    2.7504 H   0  0  0  0  0  0  0  0  0  0  0  0
   10.0797    2.9972   -0.3570 H   0  0  0  0  0  0  0  0  0  0  0  0
    3.4982   -3.2554    1.3682 H   0  0  0  0  0  0  0  0  0  0  0  0
    4.1116   -5.6253    1.3503 H   0  0  0  0  0  0  0  0  0  0  0  0
    7.5685   -4.7114   -1.0709 H   0  0  0  0  0  0  0  0  0  0  0  0
    6.9424   -2.3410   -1.0896 H   0  0  0  0  0  0  0  0  0  0  0  0
    5.8498   -7.0050   -2.3420 H   0  0  0  0  0  0  0  0  0  0  0  0
    4.3409   -7.3060   -1.4144 H   0  0  0  0  0  0  0  0  0  0  0  0
    5.5363   -8.6156   -1.6334 H   0  0  0  0  0  0  0  0  0  0  0  0
  1  2  1  0  0  0  0
  1 28  1  0  0  0  0
  1 29  1  0  0  0  0
  1 30  1  0  0  0  0
  2  3  2  0  0  0  0
  2 17  1  0  0  0  0
  3  4  1  0  0  0  0
  3 31  1  0  0  0  0
  4  5  2  0  0  0  0
  4  6  1  0  0  0  0
  6  7  1  0  0  0  0
  6 16  2  0  0  0  0
  7  8  1  0  0  0  0
  8  9  1  0  0  0  0
  8 14  2  0  0  0  0
  9 10  2  0  0  0  0
  9 32  1  0  0  0  0
 10 11  1  0  0  0  0
 10 33  1  0  0  0  0
 11 12  1  0  0  0  0
 11 13  2  0  0  0  0
 13 14  1  0  0  0  0
 13 34  1  0  0  0  0
 14 15  1  0  0  0  0
 16 17  1  0  0  0  0
 16 18  1  0  0  0  0
 18 19  1  0  0  0  0
 18 23  2  0  0  0  0
 19 20  2  0  0  0  0
 19 35  1  0  0  0  0
 20 21  1  0  0  0  0
 20 36  1  0  0  0  0
 21 22  2  0  0  0  0
 21 24  1  0  0  0  0
 22 23  1  0  0  0  0
 22 37  1  0  0  0  0
 23 38  1  0  0  0  0
 24 25  1  0  0  0  0
 24 26  2  0  0  0  0
 24 27  2  0  0  0  0
 25 39  1  0  0  0  0
 25 40  1  0  0  0  0
 25 41  1  0  0  0  0
M  END
$$$$
