
 OpenBabel07142517313D

 44 47  0  0  0  0  0  0  0  0999 V2000
    3.8768   -0.6134    1.3520 C   0  0  0  0  0  0  0  0  0  0  0  0
    3.0697   -0.0796   -0.1364 S   0  0  0  0  0  0  0  0  0  0  0  0
    3.6617   -0.7979   -1.2473 O   0  0  0  0  0  0  0  0  0  0  0  0
    1.6428   -0.1186    0.0955 O   0  0  0  0  0  0  0  0  0  0  0  0
    3.5465    1.6248   -0.2941 C   0  0  0  0  0  0  0  0  0  0  0  0
    4.7255    1.9623   -0.9614 C   0  0  0  0  0  0  0  0  0  0  0  0
    5.0990    3.3085   -1.0741 C   0  0  0  0  0  0  0  0  0  0  0  0
    4.2865    4.3344   -0.5555 C   0  0  0  0  0  0  0  0  0  0  0  0
    3.0623    3.9632    0.0267 C   0  0  0  0  0  0  0  0  0  0  0  0
    2.7049    2.6214    0.1909 C   0  0  0  0  0  0  0  0  0  0  0  0
    4.7261    5.7490   -0.5433 C   0  0  0  0  0  0  0  0  0  0  0  0
    5.6010    6.3982   -1.8884 S   0  0  0  0  0  0  0  0  0  0  0  0
    5.7256    7.9297   -1.1124 C   0  0  0  0  0  0  0  0  0  0  0  0
    5.1322    7.9869    0.0586 N   0  0  0  0  0  0  0  0  0  0  0  0
    4.5714    6.7663    0.3999 C   0  0  0  0  0  0  0  0  0  0  0  0
    3.8778    6.6511    1.6815 C   0  0  0  0  0  0  0  0  0  0  0  0
    3.0043    7.6699    2.0883 C   0  0  0  0  0  0  0  0  0  0  0  0
    2.2867    7.5534    3.2819 C   0  0  0  0  0  0  0  0  0  0  0  0
    2.4290    6.4143    4.0739 C   0  0  0  0  0  0  0  0  0  0  0  0
    3.3089    5.4074    3.6923 C   0  0  0  0  0  0  0  0  0  0  0  0
    4.0535    5.5400    2.5192 C   0  0  0  0  0  0  0  0  0  0  0  0
    6.4496    9.0518   -1.7415 C   0  0  0  0  0  0  0  0  0  0  0  0
    7.6735    8.8246   -2.4070 C   0  0  0  0  0  0  0  0  0  0  0  0
    8.3949    9.8724   -2.9896 C   0  0  0  0  0  0  0  0  0  0  0  0
    7.9160   11.1750   -2.9108 C   0  0  0  0  0  0  0  0  0  0  0  0
    6.7162   11.4283   -2.2500 C   0  0  0  0  0  0  0  0  0  0  0  0
    5.9854   10.3803   -1.6692 C   0  0  0  0  0  0  0  0  0  0  0  0
    4.4905   10.8221   -0.9125 Cl  0  0  0  0  0  0  0  0  0  0  0  0
    3.6316   -1.6668    1.5082 H   0  0  0  0  0  0  0  0  0  0  0  0
    3.5105   -0.0216    2.1924 H   0  0  0  0  0  0  0  0  0  0  0  0
    4.9559   -0.4996    1.2357 H   0  0  0  0  0  0  0  0  0  0  0  0
    5.3633    1.1916   -1.3906 H   0  0  0  0  0  0  0  0  0  0  0  0
    6.0431    3.5383   -1.5631 H   0  0  0  0  0  0  0  0  0  0  0  0
    2.3736    4.7215    0.3986 H   0  0  0  0  0  0  0  0  0  0  0  0
    1.7724    2.3759    0.6956 H   0  0  0  0  0  0  0  0  0  0  0  0
    2.8743    8.5571    1.4708 H   0  0  0  0  0  0  0  0  0  0  0  0
    1.6142    8.3501    3.5893 H   0  0  0  0  0  0  0  0  0  0  0  0
    1.8547    6.3167    4.9925 H   0  0  0  0  0  0  0  0  0  0  0  0
    3.4179    4.5161    4.3046 H   0  0  0  0  0  0  0  0  0  0  0  0
    4.7511    4.7504    2.2510 H   0  0  0  0  0  0  0  0  0  0  0  0
    8.0950    7.8227   -2.4678 H   0  0  0  0  0  0  0  0  0  0  0  0
    9.3344    9.6690   -3.4982 H   0  0  0  0  0  0  0  0  0  0  0  0
    8.4747   11.9927   -3.3594 H   0  0  0  0  0  0  0  0  0  0  0  0
    6.3481   12.4503   -2.1903 H   0  0  0  0  0  0  0  0  0  0  0  0
  1  2  1  0  0  0  0
  1 29  1  0  0  0  0
  1 30  1  0  0  0  0
  1 31  1  0  0  0  0
  2  3  2  0  0  0  0
  2  4  2  0  0  0  0
  2  5  1  0  0  0  0
  5  6  1  0  0  0  0
  5 10  2  0  0  0  0
  6  7  2  0  0  0  0
  6 32  1  0  0  0  0
  7  8  1  0  0  0  0
  7 33  1  0  0  0  0
  8  9  2  0  0  0  0
  8 11  1  0  0  0  0
  9 10  1  0  0  0  0
  9 34  1  0  0  0  0
 10 35  1  0  0  0  0
 11 12  1  0  0  0  0
 11 15  2  0  0  0  0
 12 13  1  0  0  0  0
 13 14  2  0  0  0  0
 13 22  1  0  0  0  0
 14 15  1  0  0  0  0
 15 16  1  0  0  0  0
 16 17  1  0  0  0  0
 16 21  2  0  0  0  0
 17 18  2  0  0  0  0
 17 36  1  0  0  0  0
 18 19  1  0  0  0  0
 18 37  1  0  0  0  0
 19 20  2  0  0  0  0
 19 38  1  0  0  0  0
 20 21  1  0  0  0  0
 20 39  1  0  0  0  0
 21 40  1  0  0  0  0
 22 23  1  0  0  0  0
 22 27  2  0  0  0  0
 23 24  2  0  0  0  0
 23 41  1  0  0  0  0
 24 25  1  0  0  0  0
 24 42  1  0  0  0  0
 25 26  2  0  0  0  0
 25 43  1  0  0  0  0
 26 27  1  0  0  0  0
 26 44  1  0  0  0  0
 27 28  1  0  0  0  0
M  END
$$$$
