
 OpenBabel07142516373D

 40 43  0  0  0  0  0  0  0  0999 V2000
    3.4212   -0.2322    1.5417 C   0  0  0  0  0  0  0  0  0  0  0  0
    2.8147    0.0888   -0.0934 S   0  0  0  0  0  0  0  0  0  0  0  0
    1.3652    0.0655   -0.0556 O   0  0  0  0  0  0  0  0  0  0  0  0
    3.5288    1.2332   -0.6257 O   0  0  0  0  0  0  0  0  0  0  0  0
    3.3508   -1.3436   -0.9933 C   0  0  0  0  0  0  0  0  0  0  0  0
    2.5396   -2.4753   -1.0171 C   0  0  0  0  0  0  0  0  0  0  0  0
    2.9674   -3.6052   -1.7134 C   0  0  0  0  0  0  0  0  0  0  0  0
    4.1560   -3.5892   -2.4631 C   0  0  0  0  0  0  0  0  0  0  0  0
    4.9463   -2.4309   -2.4413 C   0  0  0  0  0  0  0  0  0  0  0  0
    4.5588   -1.3161   -1.6916 C   0  0  0  0  0  0  0  0  0  0  0  0
    4.4953   -4.7355   -3.2999 C   0  0  0  0  0  0  0  0  0  0  0  0
    3.6467   -5.5818   -4.1054 C   0  0  0  0  0  0  0  0  0  0  0  0
    4.3516   -6.5884   -4.6480 N   0  0  0  0  0  0  0  0  0  0  0  0
    5.6176   -6.3661   -4.2832 N   0  0  0  0  0  0  0  0  0  0  0  0
    6.5844   -7.2035   -4.7192 N   0  0  0  0  0  0  0  0  0  0  0  0
    7.7658   -6.8692   -4.3079 C   0  0  0  0  0  0  0  0  0  0  0  0
    8.1003   -5.7084   -3.4530 C   0  0  0  0  0  0  0  0  0  0  0  0
    7.0832   -4.9451   -3.0456 C   0  0  0  0  0  0  0  0  0  0  0  0
    5.7687   -5.2563   -3.4742 C   0  0  0  0  0  0  0  0  0  0  0  0
    2.2010   -5.4713   -4.3632 C   0  0  0  0  0  0  0  0  0  0  0  0
    1.5775   -4.2171   -4.4590 C   0  0  0  0  0  0  0  0  0  0  0  0
    0.1921   -4.1105   -4.5988 C   0  0  0  0  0  0  0  0  0  0  0  0
   -0.5844   -5.2596   -4.7091 C   0  0  0  0  0  0  0  0  0  0  0  0
    0.0236   -6.5134   -4.6751 C   0  0  0  0  0  0  0  0  0  0  0  0
    1.4073   -6.6196   -4.4964 C   0  0  0  0  0  0  0  0  0  0  0  0
    3.1299    0.6029    2.1818 H   0  0  0  0  0  0  0  0  0  0  0  0
    4.5092   -0.3128    1.5048 H   0  0  0  0  0  0  0  0  0  0  0  0
    2.9764   -1.1582    1.9108 H   0  0  0  0  0  0  0  0  0  0  0  0
    1.5722   -2.4880   -0.5191 H   0  0  0  0  0  0  0  0  0  0  0  0
    2.3259   -4.4855   -1.7073 H   0  0  0  0  0  0  0  0  0  0  0  0
    5.8572   -2.3632   -3.0307 H   0  0  0  0  0  0  0  0  0  0  0  0
    5.1888   -0.4289   -1.6834 H   0  0  0  0  0  0  0  0  0  0  0  0
    8.6240   -7.4937   -4.6043 H   0  0  0  0  0  0  0  0  0  0  0  0
    9.1338   -5.5309   -3.1904 H   0  0  0  0  0  0  0  0  0  0  0  0
    7.2704   -4.0869   -2.4089 H   0  0  0  0  0  0  0  0  0  0  0  0
    2.1593   -3.3007   -4.4040 H   0  0  0  0  0  0  0  0  0  0  0  0
   -0.2748   -3.1289   -4.6210 H   0  0  0  0  0  0  0  0  0  0  0  0
   -1.6613   -5.1768   -4.8313 H   0  0  0  0  0  0  0  0  0  0  0  0
   -0.5793   -7.4114   -4.7829 H   0  0  0  0  0  0  0  0  0  0  0  0
    1.8636   -7.6072   -4.4566 H   0  0  0  0  0  0  0  0  0  0  0  0
  1  2  1  0  0  0  0
  1 26  1  0  0  0  0
  1 27  1  0  0  0  0
  1 28  1  0  0  0  0
  2  3  2  0  0  0  0
  2  4  2  0  0  0  0
  2  5  1  0  0  0  0
  5  6  1  0  0  0  0
  5 10  2  0  0  0  0
  6  7  2  0  0  0  0
  6 29  1  0  0  0  0
  7  8  1  0  0  0  0
  7 30  1  0  0  0  0
  8  9  2  0  0  0  0
  8 11  1  0  0  0  0
  9 10  1  0  0  0  0
  9 31  1  0  0  0  0
 10 32  1  0  0  0  0
 11 12  1  0  0  0  0
 11 19  2  0  0  0  0
 12 13  2  0  0  0  0
 12 20  1  0  0  0  0
 13 14  1  0  0  0  0
 14 15  1  0  0  0  0
 14 19  1  0  0  0  0
 15 16  2  0  0  0  0
 16 17  1  0  0  0  0
 16 33  1  0  0  0  0
 17 18  2  0  0  0  0
 17 34  1  0  0  0  0
 18 19  1  0  0  0  0
 18 35  1  0  0  0  0
 20 21  1  0  0  0  0
 20 25  2  0  0  0  0
 21 22  2  0  0  0  0
 21 36  1  0  0  0  0
 22 23  1  0  0  0  0
 22 37  1  0  0  0  0
 23 24  2  0  0  0  0
 23 38  1  0  0  0  0
 24 25  1  0  0  0  0
 24 39  1  0  0  0  0
 25 40  1  0  0  0  0
M  END
$$$$
