
 OpenBabel07142517433D

 63 65  0  0  0  0  0  0  0  0999 V2000
    2.7247    1.5236    0.0432 C   0  0  0  0  0  0  0  0  0  0  0  0
    2.4562   -0.0049    0.0124 C   0  0  0  0  0  0  0  0  0  0  0  0
    0.9441   -0.1702   -0.2633 C   0  0  0  0  0  0  0  0  0  0  0  0
    3.2496   -0.5554   -1.1931 C   0  0  0  0  0  0  0  0  0  0  0  0
    2.8673   -0.7188    1.3264 C   0  0  0  0  0  0  0  0  0  0  0  0
    3.4455    0.0172    2.3884 C   0  0  0  0  0  0  0  0  0  0  0  0
    3.7569   -0.5714    3.6174 C   0  0  0  0  0  0  0  0  0  0  0  0
    3.4623   -1.9280    3.7837 C   0  0  0  0  0  0  0  0  0  0  0  0
    2.9948   -2.7622    2.7534 C   0  0  0  0  0  0  0  0  0  0  0  0
    2.6790   -2.1116    1.5426 C   0  0  0  0  0  0  0  0  0  0  0  0
    2.1053   -2.8427    0.5447 O   0  0  0  0  0  0  0  0  0  0  0  0
    2.8095   -4.2737    3.0276 C   0  0  0  0  0  0  0  0  0  0  0  0
    3.2795   -4.7036    4.4477 C   0  0  0  0  0  0  0  0  0  0  0  0
    1.3184   -4.6422    2.9309 C   0  0  0  0  0  0  0  0  0  0  0  0
    3.6316   -5.1554    2.0602 C   0  0  0  0  0  0  0  0  0  0  0  0
    4.3217    0.2300    4.7195 C   0  0  0  0  0  0  0  0  0  0  0  0
    4.0182    1.5047    4.9160 N   0  0  0  0  0  0  0  0  0  0  0  0
    4.4747    1.8445    6.1765 C   0  0  0  0  0  0  0  0  0  0  0  0
    5.1137    0.7533    6.7341 C   0  0  0  0  0  0  0  0  0  0  0  0
    5.1193   -0.2364    5.7747 N   0  0  0  0  0  0  0  0  0  0  0  0
    5.8015   -1.4826    5.8963 C   0  0  0  0  0  0  0  0  0  0  0  0
    5.8846   -2.1169    7.1449 C   0  0  0  0  0  0  0  0  0  0  0  0
    6.4540   -3.3910    7.2432 C   0  0  0  0  0  0  0  0  0  0  0  0
    6.9472   -4.0200    6.0974 C   0  0  0  0  0  0  0  0  0  0  0  0
    6.9186   -3.3725    4.8610 C   0  0  0  0  0  0  0  0  0  0  0  0
    6.3503   -2.1014    4.7621 C   0  0  0  0  0  0  0  0  0  0  0  0
    7.6705   -5.6349    6.2124 S   0  0  0  0  0  0  0  0  0  0  0  0
    6.3190   -6.7407    5.9180 C   0  0  0  0  0  0  0  0  0  0  0  0
    8.6100   -5.7700    5.1110 O   0  0  0  0  0  0  0  0  0  0  0  0
    8.1153   -5.8173    7.5852 O   0  0  0  0  0  0  0  0  0  0  0  0
    4.2671    3.2015    6.7844 C   0  0  0  0  0  0  0  0  0  0  0  0
    3.5720    4.0526    5.9879 F   0  0  0  0  0  0  0  0  0  0  0  0
    3.5866    3.1199    7.9601 F   0  0  0  0  0  0  0  0  0  0  0  0
    5.4518    3.8072    7.0695 F   0  0  0  0  0  0  0  0  0  0  0  0
    2.4188    2.0056   -0.8929 H   0  0  0  0  0  0  0  0  0  0  0  0
    3.7916    1.7423    0.1786 H   0  0  0  0  0  0  0  0  0  0  0  0
    2.1689    2.0141    0.8518 H   0  0  0  0  0  0  0  0  0  0  0  0
    0.6602    0.3325   -1.1962 H   0  0  0  0  0  0  0  0  0  0  0  0
    0.3434    0.2635    0.5437 H   0  0  0  0  0  0  0  0  0  0  0  0
    0.6392   -1.2138   -0.3741 H   0  0  0  0  0  0  0  0  0  0  0  0
    2.9538   -0.0455   -2.1189 H   0  0  0  0  0  0  0  0  0  0  0  0
    3.0849   -1.6228   -1.3602 H   0  0  0  0  0  0  0  0  0  0  0  0
    4.3274   -0.4031   -1.0628 H   0  0  0  0  0  0  0  0  0  0  0  0
    3.6338    1.0813    2.2999 H   0  0  0  0  0  0  0  0  0  0  0  0
    3.6025   -2.3396    4.7774 H   0  0  0  0  0  0  0  0  0  0  0  0
    2.8126   -3.3540    0.1221 H   0  0  0  0  0  0  0  0  0  0  0  0
    2.7096   -4.2044    5.2397 H   0  0  0  0  0  0  0  0  0  0  0  0
    4.3398   -4.4789    4.5943 H   0  0  0  0  0  0  0  0  0  0  0  0
    3.1634   -5.7813    4.6065 H   0  0  0  0  0  0  0  0  0  0  0  0
    0.7291   -4.0669    3.6541 H   0  0  0  0  0  0  0  0  0  0  0  0
    1.1638   -5.7057    3.1418 H   0  0  0  0  0  0  0  0  0  0  0  0
    0.9036   -4.4488    1.9384 H   0  0  0  0  0  0  0  0  0  0  0  0
    4.7027   -4.9291    2.1248 H   0  0  0  0  0  0  0  0  0  0  0  0
    3.3302   -5.0534    1.0165 H   0  0  0  0  0  0  0  0  0  0  0  0
    3.5093   -6.2176    2.3092 H   0  0  0  0  0  0  0  0  0  0  0  0
    5.6206    0.6453    7.6831 H   0  0  0  0  0  0  0  0  0  0  0  0
    5.4607   -1.6693    8.0425 H   0  0  0  0  0  0  0  0  0  0  0  0
    6.4972   -3.8862    8.2123 H   0  0  0  0  0  0  0  0  0  0  0  0
    7.3185   -3.8496    3.9669 H   0  0  0  0  0  0  0  0  0  0  0  0
    6.3382   -1.6153    3.7875 H   0  0  0  0  0  0  0  0  0  0  0  0
    5.9237   -6.5643    4.9156 H   0  0  0  0  0  0  0  0  0  0  0  0
    5.5507   -6.5768    6.6756 H   0  0  0  0  0  0  0  0  0  0  0  0
    6.6964   -7.7636    5.9887 H   0  0  0  0  0  0  0  0  0  0  0  0
  1  2  1  0  0  0  0
  1 35  1  0  0  0  0
  1 36  1  0  0  0  0
  1 37  1  0  0  0  0
  2  3  1  0  0  0  0
  2  4  1  0  0  0  0
  2  5  1  0  0  0  0
  3 38  1  0  0  0  0
  3 39  1  0  0  0  0
  3 40  1  0  0  0  0
  4 41  1  0  0  0  0
  4 42  1  0  0  0  0
  4 43  1  0  0  0  0
  5  6  1  0  0  0  0
  5 10  2  0  0  0  0
  6  7  2  0  0  0  0
  6 44  1  0  0  0  0
  7  8  1  0  0  0  0
  7 16  1  0  0  0  0
  8  9  2  0  0  0  0
  8 45  1  0  0  0  0
  9 10  1  0  0  0  0
  9 12  1  0  0  0  0
 10 11  1  0  0  0  0
 11 46  1  0  0  0  0
 12 13  1  0  0  0  0
 12 14  1  0  0  0  0
 12 15  1  0  0  0  0
 13 47  1  0  0  0  0
 13 48  1  0  0  0  0
 13 49  1  0  0  0  0
 14 50  1  0  0  0  0
 14 51  1  0  0  0  0
 14 52  1  0  0  0  0
 15 53  1  0  0  0  0
 15 54  1  0  0  0  0
 15 55  1  0  0  0  0
 16 17  2  0  0  0  0
 16 20  1  0  0  0  0
 17 18  1  0  0  0  0
 18 19  2  0  0  0  0
 18 31  1  0  0  0  0
 19 20  1  0  0  0  0
 19 56  1  0  0  0  0
 20 21  1  0  0  0  0
 21 22  1  0  0  0  0
 21 26  2  0  0  0  0
 22 23  2  0  0  0  0
 22 57  1  0  0  0  0
 23 24  1  0  0  0  0
 23 58  1  0  0  0  0
 24 25  2  0  0  0  0
 24 27  1  0  0  0  0
 25 26  1  0  0  0  0
 25 59  1  0  0  0  0
 26 60  1  0  0  0  0
 27 28  1  0  0  0  0
 27 29  2  0  0  0  0
 27 30  2  0  0  0  0
 28 61  1  0  0  0  0
 28 62  1  0  0  0  0
 28 63  1  0  0  0  0
 31 32  1  0  0  0  0
 31 33  1  0  0  0  0
 31 34  1  0  0  0  0
M  END
$$$$
