
 OpenBabel07142516263D

 52 55  0  0  0  0  0  0  0  0999 V2000
    2.5228   -0.1181   -0.0036 C   0  0  0  0  0  0  0  0  0  0  0  0
    1.0239   -0.0602    0.0025 C   0  0  0  0  0  0  0  0  0  0  0  0
    0.2611   -1.0256   -0.6629 C   0  0  0  0  0  0  0  0  0  0  0  0
   -1.1341   -0.9604   -0.6407 C   0  0  0  0  0  0  0  0  0  0  0  0
   -1.7862    0.0684    0.0517 C   0  0  0  0  0  0  0  0  0  0  0  0
   -1.0254    1.0456    0.7010 C   0  0  0  0  0  0  0  0  0  0  0  0
    0.3699    0.9801    0.6754 C   0  0  0  0  0  0  0  0  0  0  0  0
   -3.2609    0.1037    0.0921 C   0  0  0  0  0  0  0  0  0  0  0  0
   -3.9633   -0.4997    1.0730 C   0  0  0  0  0  0  0  0  0  0  0  0
   -5.4314   -0.4805    0.9311 C   0  0  0  0  0  0  0  0  0  0  0  0
   -6.0985    0.0155   -0.0580 N   0  0  0  0  0  0  0  0  0  0  0  0
   -5.3664    0.6297   -1.0518 N   0  0  0  0  0  0  0  0  0  0  0  0
   -6.1097    1.1617   -2.1877 C   0  0  0  0  0  0  0  0  0  0  0  0
   -6.2302    0.1698   -3.3245 C   0  0  0  0  0  0  0  0  0  0  0  0
   -7.2992   -0.7364   -3.3600 C   0  0  0  0  0  0  0  0  0  0  0  0
   -7.4504   -1.6162   -4.4338 C   0  0  0  0  0  0  0  0  0  0  0  0
   -6.5281   -1.6083   -5.4783 C   0  0  0  0  0  0  0  0  0  0  0  0
   -5.4420   -0.7357   -5.4395 C   0  0  0  0  0  0  0  0  0  0  0  0
   -5.2875    0.1430   -4.3641 C   0  0  0  0  0  0  0  0  0  0  0  0
   -3.9884    0.8075   -1.0086 C   0  0  0  0  0  0  0  0  0  0  0  0
   -3.3684    1.4932   -1.8194 O   0  0  0  0  0  0  0  0  0  0  0  0
   -3.3419   -1.1752    2.2202 C   0  0  0  0  0  0  0  0  0  0  0  0
   -3.0427   -0.4449    3.3787 C   0  0  0  0  0  0  0  0  0  0  0  0
   -2.3334   -1.0402    4.4196 C   0  0  0  0  0  0  0  0  0  0  0  0
   -1.9390   -2.3773    4.3039 C   0  0  0  0  0  0  0  0  0  0  0  0
   -2.2681   -3.1281    3.1747 C   0  0  0  0  0  0  0  0  0  0  0  0
   -2.9744   -2.5248    2.1332 C   0  0  0  0  0  0  0  0  0  0  0  0
   -1.0009   -3.1165    5.6044 S   0  0  0  0  0  0  0  0  0  0  0  0
   -2.2456   -3.6474    6.5962 N   0  0  0  0  0  0  0  0  0  0  0  0
   -0.3441   -4.3008    5.1106 O   0  0  0  0  0  0  0  0  0  0  0  0
   -0.3060   -2.0833    6.3381 O   0  0  0  0  0  0  0  0  0  0  0  0
    2.8903   -1.0051   -0.5302 H   0  0  0  0  0  0  0  0  0  0  0  0
    2.9010   -0.1596    1.0231 H   0  0  0  0  0  0  0  0  0  0  0  0
    2.9327    0.7657   -0.5026 H   0  0  0  0  0  0  0  0  0  0  0  0
    0.7464   -1.8337   -1.2062 H   0  0  0  0  0  0  0  0  0  0  0  0
   -1.7071   -1.7173   -1.1726 H   0  0  0  0  0  0  0  0  0  0  0  0
   -1.5094    1.8659    1.2236 H   0  0  0  0  0  0  0  0  0  0  0  0
    0.9481    1.7498    1.1821 H   0  0  0  0  0  0  0  0  0  0  0  0
   -5.9958   -0.9613    1.7488 H   0  0  0  0  0  0  0  0  0  0  0  0
   -5.6269    2.0769   -2.5513 H   0  0  0  0  0  0  0  0  0  0  0  0
   -7.1080    1.4616   -1.8459 H   0  0  0  0  0  0  0  0  0  0  0  0
   -8.0258   -0.7510   -2.5504 H   0  0  0  0  0  0  0  0  0  0  0  0
   -8.2932   -2.3017   -4.4576 H   0  0  0  0  0  0  0  0  0  0  0  0
   -6.6551   -2.2829   -6.3213 H   0  0  0  0  0  0  0  0  0  0  0  0
   -4.7186   -0.7331   -6.2509 H   0  0  0  0  0  0  0  0  0  0  0  0
   -4.4312    0.8160   -4.3466 H   0  0  0  0  0  0  0  0  0  0  0  0
   -3.3310    0.6010    3.4679 H   0  0  0  0  0  0  0  0  0  0  0  0
   -2.0782   -0.4630    5.3039 H   0  0  0  0  0  0  0  0  0  0  0  0
   -1.9686   -4.1708    3.0942 H   0  0  0  0  0  0  0  0  0  0  0  0
   -3.2050   -3.1068    1.2433 H   0  0  0  0  0  0  0  0  0  0  0  0
   -2.2314   -4.6637    6.6706 H   0  0  0  0  0  0  0  0  0  0  0  0
   -2.2345   -3.1467    7.4838 H   0  0  0  0  0  0  0  0  0  0  0  0
  1  2  1  0  0  0  0
  1 32  1  0  0  0  0
  1 33  1  0  0  0  0
  1 34  1  0  0  0  0
  2  3  1  0  0  0  0
  2  7  2  0  0  0  0
  3  4  2  0  0  0  0
  3 35  1  0  0  0  0
  4  5  1  0  0  0  0
  4 36  1  0  0  0  0
  5  6  2  0  0  0  0
  5  8  1  0  0  0  0
  6  7  1  0  0  0  0
  6 37  1  0  0  0  0
  7 38  1  0  0  0  0
  8  9  2  0  0  0  0
  8 20  1  0  0  0  0
  9 10  1  0  0  0  0
  9 22  1  0  0  0  0
 10 11  2  0  0  0  0
 10 39  1  0  0  0  0
 11 12  1  0  0  0  0
 12 13  1  0  0  0  0
 12 20  1  0  0  0  0
 13 14  1  0  0  0  0
 13 40  1  0  0  0  0
 13 41  1  0  0  0  0
 14 15  1  0  0  0  0
 14 19  2  0  0  0  0
 15 16  2  0  0  0  0
 15 42  1  0  0  0  0
 16 17  1  0  0  0  0
 16 43  1  0  0  0  0
 17 18  2  0  0  0  0
 17 44  1  0  0  0  0
 18 19  1  0  0  0  0
 18 45  1  0  0  0  0
 19 46  1  0  0  0  0
 20 21  2  0  0  0  0
 22 23  1  0  0  0  0
 22 27  2  0  0  0  0
 23 24  2  0  0  0  0
 23 47  1  0  0  0  0
 24 25  1  0  0  0  0
 24 48  1  0  0  0  0
 25 26  2  0  0  0  0
 25 28  1  0  0  0  0
 26 27  1  0  0  0  0
 26 49  1  0  0  0  0
 27 50  1  0  0  0  0
 28 29  1  0  0  0  0
 28 30  2  0  0  0  0
 28 31  2  0  0  0  0
 29 51  1  0  0  0  0
 29 52  1  0  0  0  0
M  END
$$$$
