
 OpenBabel07142515583D

 40 42  0  0  0  0  0  0  0  0999 V2000
    2.5625    0.0340    0.2310 C   0  0  0  0  0  0  0  0  0  0  0  0
    1.0685    0.0314    0.1087 C   0  0  0  0  0  0  0  0  0  0  0  0
    0.3812    1.0940   -0.4845 C   0  0  0  0  0  0  0  0  0  0  0  0
   -1.0188    1.0905   -0.5479 C   0  0  0  0  0  0  0  0  0  0  0  0
   -1.7617    0.0185   -0.0346 C   0  0  0  0  0  0  0  0  0  0  0  0
   -1.0538   -1.0758    0.4843 C   0  0  0  0  0  0  0  0  0  0  0  0
    0.3386   -1.0534    0.5960 C   0  0  0  0  0  0  0  0  0  0  0  0
   -3.2366    0.0474   -0.0605 C   0  0  0  0  0  0  0  0  0  0  0  0
   -4.0730    0.6363   -0.9970 C   0  0  0  0  0  0  0  0  0  0  0  0
   -5.3918    0.2439   -0.6686 C   0  0  0  0  0  0  0  0  0  0  0  0
   -5.3847   -0.5836    0.3901 N   0  0  0  0  0  0  0  0  0  0  0  0
   -4.1051   -0.5621    0.8504 N   0  0  0  0  0  0  0  0  0  0  0  0
   -3.8385   -1.1105    2.1373 C   0  0  0  0  0  0  0  0  0  0  0  0
   -4.6117   -2.1907    2.5901 C   0  0  0  0  0  0  0  0  0  0  0  0
   -4.3238   -2.7889    3.8185 C   0  0  0  0  0  0  0  0  0  0  0  0
   -3.2773   -2.2917    4.6003 C   0  0  0  0  0  0  0  0  0  0  0  0
   -2.5347   -1.1854    4.1805 C   0  0  0  0  0  0  0  0  0  0  0  0
   -2.8222   -0.5896    2.9512 C   0  0  0  0  0  0  0  0  0  0  0  0
   -2.9363   -3.0274    6.1714 S   0  0  0  0  0  0  0  0  0  0  0  0
   -1.8483   -4.2370    5.7544 N   0  0  0  0  0  0  0  0  0  0  0  0
   -2.1920   -2.0911    6.9842 O   0  0  0  0  0  0  0  0  0  0  0  0
   -4.1173   -3.7012    6.6490 O   0  0  0  0  0  0  0  0  0  0  0  0
   -6.6575    0.6407   -1.3800 C   0  0  0  0  0  0  0  0  0  0  0  0
   -6.4041    1.4649   -2.4352 F   0  0  0  0  0  0  0  0  0  0  0  0
   -7.3371   -0.4245   -1.8795 F   0  0  0  0  0  0  0  0  0  0  0  0
   -7.5143    1.3169   -0.5682 F   0  0  0  0  0  0  0  0  0  0  0  0
    3.0036    0.9094   -0.2557 H   0  0  0  0  0  0  0  0  0  0  0  0
    2.9788   -0.8605   -0.2438 H   0  0  0  0  0  0  0  0  0  0  0  0
    2.8537    0.0494    1.2867 H   0  0  0  0  0  0  0  0  0  0  0  0
    0.9279    1.9407   -0.8950 H   0  0  0  0  0  0  0  0  0  0  0  0
   -1.5155    1.9470   -0.9978 H   0  0  0  0  0  0  0  0  0  0  0  0
   -1.5717   -1.9620    0.8434 H   0  0  0  0  0  0  0  0  0  0  0  0
    0.8474   -1.8912    1.0681 H   0  0  0  0  0  0  0  0  0  0  0  0
   -3.7730    1.2386   -1.8448 H   0  0  0  0  0  0  0  0  0  0  0  0
   -5.4133   -2.5992    1.9763 H   0  0  0  0  0  0  0  0  0  0  0  0
   -4.9125   -3.6409    4.1521 H   0  0  0  0  0  0  0  0  0  0  0  0
   -1.7358   -0.7820    4.7991 H   0  0  0  0  0  0  0  0  0  0  0  0
   -2.2493    0.2874    2.6563 H   0  0  0  0  0  0  0  0  0  0  0  0
   -0.9538   -4.0676    6.2155 H   0  0  0  0  0  0  0  0  0  0  0  0
   -2.2535   -5.1491    5.9666 H   0  0  0  0  0  0  0  0  0  0  0  0
  1  2  1  0  0  0  0
  1 27  1  0  0  0  0
  1 28  1  0  0  0  0
  1 29  1  0  0  0  0
  2  3  1  0  0  0  0
  2  7  2  0  0  0  0
  3  4  2  0  0  0  0
  3 30  1  0  0  0  0
  4  5  1  0  0  0  0
  4 31  1  0  0  0  0
  5  6  2  0  0  0  0
  5  8  1  0  0  0  0
  6  7  1  0  0  0  0
  6 32  1  0  0  0  0
  7 33  1  0  0  0  0
  8  9  2  0  0  0  0
  8 12  1  0  0  0  0
  9 10  1  0  0  0  0
  9 34  1  0  0  0  0
 10 11  2  0  0  0  0
 10 23  1  0  0  0  0
 11 12  1  0  0  0  0
 12 13  1  0  0  0  0
 13 14  1  0  0  0  0
 13 18  2  0  0  0  0
 14 15  2  0  0  0  0
 14 35  1  0  0  0  0
 15 16  1  0  0  0  0
 15 36  1  0  0  0  0
 16 17  2  0  0  0  0
 16 19  1  0  0  0  0
 17 18  1  0  0  0  0
 17 37  1  0  0  0  0
 18 38  1  0  0  0  0
 19 20  1  0  0  0  0
 19 21  2  0  0  0  0
 19 22  2  0  0  0  0
 20 39  1  0  0  0  0
 20 40  1  0  0  0  0
 23 24  1  0  0  0  0
 23 25  1  0  0  0  0
 23 26  1  0  0  0  0
M  END
$$$$
