
 OpenBabel07142515543D

 52 54  0  0  1  0  0  0  0  0999 V2000
    3.0318    1.2130   -0.5296 C   0  0  0  0  0  0  0  0  0  0  0  0
    2.3614   -0.0095    0.0992 C   0  0  3  0  0  0  0  0  0  0  0  0
    0.8712    0.2294    0.3222 C   0  0  0  0  0  0  0  0  0  0  0  0
    0.2222   -0.8405    0.8451 O   0  0  0  0  0  0  0  0  0  0  0  0
    0.2895    1.2799    0.0952 O   0  0  0  0  0  0  0  0  0  0  0  0
    2.6736   -1.2403   -0.7351 C   0  0  0  0  0  0  0  0  0  0  0  0
    1.8988   -1.6065   -1.8427 C   0  0  0  0  0  0  0  0  0  0  0  0
    2.2528   -2.7090   -2.6324 C   0  0  0  0  0  0  0  0  0  0  0  0
    3.3890   -3.4860   -2.3483 C   0  0  0  0  0  0  0  0  0  0  0  0
    4.1495   -3.1002   -1.2301 C   0  0  0  0  0  0  0  0  0  0  0  0
    5.2424   -3.7905   -0.8688 F   0  0  0  0  0  0  0  0  0  0  0  0
    3.8110   -1.9990   -0.4428 C   0  0  0  0  0  0  0  0  0  0  0  0
    3.7694   -4.6304   -3.2079 C   0  0  0  0  0  0  0  0  0  0  0  0
    2.8077   -5.4743   -3.7954 C   0  0  0  0  0  0  0  0  0  0  0  0
    3.1780   -6.5740   -4.5796 C   0  0  0  0  0  0  0  0  0  0  0  0
    4.5248   -6.8444   -4.8054 C   0  0  0  0  0  0  0  0  0  0  0  0
    5.4926   -6.0034   -4.2679 C   0  0  0  0  0  0  0  0  0  0  0  0
    6.8336   -6.3594   -4.5456 O   0  0  0  0  0  0  0  0  0  0  0  0
    7.9433   -5.6016   -4.1830 C   0  0  0  0  0  0  0  0  0  0  0  0
    7.9480   -4.4786   -3.6930 O   0  0  0  0  0  0  0  0  0  0  0  0
    9.1206   -6.2532   -4.3956 N   0  0  0  0  0  0  0  0  0  0  0  0
    9.3744   -7.1151   -5.5397 C   0  0  0  0  0  0  0  0  0  0  0  0
   10.5810   -6.5713   -6.3164 C   0  0  0  0  0  0  0  0  0  0  0  0
   11.8926   -6.7405   -5.5470 C   0  0  0  0  0  0  0  0  0  0  0  0
   12.1038   -8.1833   -5.0990 C   0  0  0  0  0  0  0  0  0  0  0  0
   10.9051   -8.7394   -4.3338 C   0  0  0  0  0  0  0  0  0  0  0  0
    9.6029   -8.5650   -5.1118 C   0  0  0  0  0  0  0  0  0  0  0  0
    5.1177   -4.9251   -3.4709 C   0  0  0  0  0  0  0  0  0  0  0  0
    2.8718    2.1057    0.0842 H   0  0  0  0  0  0  0  0  0  0  0  0
    2.6323    1.4209   -1.5286 H   0  0  0  0  0  0  0  0  0  0  0  0
    4.1137    1.0645   -0.6273 H   0  0  0  0  0  0  0  0  0  0  0  0
    2.7830   -0.1432    1.1053 H   0  0  0  0  0  0  0  0  0  0  0  0
    0.7937   -1.6253    0.9591 H   0  0  0  0  0  0  0  0  0  0  0  0
    1.0180   -1.0300   -2.1251 H   0  0  0  0  0  0  0  0  0  0  0  0
    1.6353   -2.9348   -3.5002 H   0  0  0  0  0  0  0  0  0  0  0  0
    4.4673   -1.7392    0.3844 H   0  0  0  0  0  0  0  0  0  0  0  0
    1.7462   -5.2958   -3.6371 H   0  0  0  0  0  0  0  0  0  0  0  0
    2.4153   -7.2182   -5.0060 H   0  0  0  0  0  0  0  0  0  0  0  0
    4.8167   -7.7122   -5.3903 H   0  0  0  0  0  0  0  0  0  0  0  0
    9.8971   -5.7349   -4.0097 H   0  0  0  0  0  0  0  0  0  0  0  0
    8.5004   -7.0771   -6.2014 H   0  0  0  0  0  0  0  0  0  0  0  0
   10.4330   -5.5094   -6.5490 H   0  0  0  0  0  0  0  0  0  0  0  0
   10.6588   -7.0999   -7.2744 H   0  0  0  0  0  0  0  0  0  0  0  0
   11.9038   -6.0819   -4.6702 H   0  0  0  0  0  0  0  0  0  0  0  0
   12.7294   -6.4233   -6.1791 H   0  0  0  0  0  0  0  0  0  0  0  0
   12.9991   -8.2431   -4.4688 H   0  0  0  0  0  0  0  0  0  0  0  0
   12.2916   -8.8081   -5.9800 H   0  0  0  0  0  0  0  0  0  0  0  0
   10.8231   -8.2368   -3.3628 H   0  0  0  0  0  0  0  0  0  0  0  0
   11.0659   -9.8033   -4.1262 H   0  0  0  0  0  0  0  0  0  0  0  0
    8.7618   -8.9226   -4.5062 H   0  0  0  0  0  0  0  0  0  0  0  0
    9.6390   -9.1971   -6.0092 H   0  0  0  0  0  0  0  0  0  0  0  0
    5.8730   -4.2757   -3.0337 H   0  0  0  0  0  0  0  0  0  0  0  0
  1  2  1  0  0  0  0
  1 29  1  0  0  0  0
  1 30  1  0  0  0  0
  1 31  1  0  0  0  0
  2  3  1  0  0  0  0
  2  6  1  0  0  0  0
  2 32  1  0  0  0  0
  3  4  1  0  0  0  0
  3  5  2  0  0  0  0
  4 33  1  0  0  0  0
  6  7  1  0  0  0  0
  6 12  2  0  0  0  0
  7  8  2  0  0  0  0
  7 34  1  0  0  0  0
  8  9  1  0  0  0  0
  8 35  1  0  0  0  0
  9 10  2  0  0  0  0
  9 13  1  0  0  0  0
 10 11  1  0  0  0  0
 10 12  1  0  0  0  0
 12 36  1  0  0  0  0
 13 14  1  0  0  0  0
 13 28  2  0  0  0  0
 14 15  2  0  0  0  0
 14 37  1  0  0  0  0
 15 16  1  0  0  0  0
 15 38  1  0  0  0  0
 16 17  2  0  0  0  0
 16 39  1  0  0  0  0
 17 18  1  0  0  0  0
 17 28  1  0  0  0  0
 18 19  1  0  0  0  0
 19 20  2  0  0  0  0
 19 21  1  0  0  0  0
 21 22  1  0  0  0  0
 21 40  1  0  0  0  0
 22 23  1  0  0  0  0
 22 27  1  0  0  0  0
 22 41  1  0  0  0  0
 23 24  1  0  0  0  0
 23 42  1  0  0  0  0
 23 43  1  0  0  0  0
 24 25  1  0  0  0  0
 24 44  1  0  0  0  0
 24 45  1  0  0  0  0
 25 26  1  0  0  0  0
 25 46  1  0  0  0  0
 25 47  1  0  0  0  0
 26 27  1  0  0  0  0
 26 48  1  0  0  0  0
 26 49  1  0  0  0  0
 27 50  1  0  0  0  0
 27 51  1  0  0  0  0
 28 52  1  0  0  0  0
M  END
$$$$
