
 OpenBabel07142516483D

 40 42  0  0  0  0  0  0  0  0999 V2000
    2.6459    1.1759   -0.4393 C   0  0  0  0  0  0  0  0  0  0  0  0
    3.5013   -0.0918    0.4552 S   0  0  0  0  0  0  0  0  0  0  0  0
    4.8053    0.4264    0.8391 O   0  0  0  0  0  0  0  0  0  0  0  0
    2.5986   -0.6339    1.4493 O   0  0  0  0  0  0  0  0  0  0  0  0
    3.7776   -1.3513   -0.7623 C   0  0  0  0  0  0  0  0  0  0  0  0
    4.9425   -1.3389   -1.5282 C   0  0  0  0  0  0  0  0  0  0  0  0
    5.1671   -2.3557   -2.4643 C   0  0  0  0  0  0  0  0  0  0  0  0
    4.2698   -3.4323   -2.6175 C   0  0  0  0  0  0  0  0  0  0  0  0
    3.1380   -3.4404   -1.7756 C   0  0  0  0  0  0  0  0  0  0  0  0
    2.8626   -2.3938   -0.8905 C   0  0  0  0  0  0  0  0  0  0  0  0
    4.5163   -4.5161   -3.6132 C   0  0  0  0  0  0  0  0  0  0  0  0
    5.8414   -4.9613   -3.8256 C   0  0  0  0  0  0  0  0  0  0  0  0
    6.1198   -6.0291   -4.6710 C   0  0  0  0  0  0  0  0  0  0  0  0
    7.7350   -6.5467   -4.9269 Cl  0  0  0  0  0  0  0  0  0  0  0  0
    5.0626   -6.6618   -5.2859 C   0  0  0  0  0  0  0  0  0  0  0  0
    3.7783   -6.2585   -5.1581 N   0  0  0  0  0  0  0  0  0  0  0  0
    3.5074   -5.1779   -4.3642 C   0  0  0  0  0  0  0  0  0  0  0  0
    2.0813   -4.7769   -4.4252 C   0  0  0  0  0  0  0  0  0  0  0  0
    1.0450   -5.7173   -4.4949 C   0  0  0  0  0  0  0  0  0  0  0  0
   -0.2915   -5.3078   -4.5090 C   0  0  0  0  0  0  0  0  0  0  0  0
   -0.5807   -3.9486   -4.4438 C   0  0  0  0  0  0  0  0  0  0  0  0
   -2.0056   -3.4568   -4.4391 C   0  0  0  0  0  0  0  0  0  0  0  0
   -2.6591   -3.7802   -5.6617 O   0  0  0  0  0  0  0  0  0  0  0  0
    0.3901   -3.0071   -4.4164 N   0  0  0  0  0  0  0  0  0  0  0  0
    1.6743   -3.4413   -4.4331 C   0  0  0  0  0  0  0  0  0  0  0  0
    2.4441    1.9975    0.2511 H   0  0  0  0  0  0  0  0  0  0  0  0
    1.7056    0.7715   -0.8190 H   0  0  0  0  0  0  0  0  0  0  0  0
    3.2766    1.5271   -1.2586 H   0  0  0  0  0  0  0  0  0  0  0  0
    5.6816   -0.5512   -1.4039 H   0  0  0  0  0  0  0  0  0  0  0  0
    6.0690   -2.2914   -3.0696 H   0  0  0  0  0  0  0  0  0  0  0  0
    2.4203   -4.2588   -1.8104 H   0  0  0  0  0  0  0  0  0  0  0  0
    1.9487   -2.4155   -0.3047 H   0  0  0  0  0  0  0  0  0  0  0  0
    6.6741   -4.4849   -3.3117 H   0  0  0  0  0  0  0  0  0  0  0  0
    5.2142   -7.5278   -5.9242 H   0  0  0  0  0  0  0  0  0  0  0  0
    1.2744   -6.7823   -4.5412 H   0  0  0  0  0  0  0  0  0  0  0  0
   -1.0907   -6.0410   -4.5771 H   0  0  0  0  0  0  0  0  0  0  0  0
   -2.0307   -2.3682   -4.3215 H   0  0  0  0  0  0  0  0  0  0  0  0
   -2.5607   -3.8984   -3.6057 H   0  0  0  0  0  0  0  0  0  0  0  0
   -2.1142   -3.3832   -6.3651 H   0  0  0  0  0  0  0  0  0  0  0  0
    2.3972   -2.6305   -4.4198 H   0  0  0  0  0  0  0  0  0  0  0  0
  1  2  1  0  0  0  0
  1 26  1  0  0  0  0
  1 27  1  0  0  0  0
  1 28  1  0  0  0  0
  2  3  2  0  0  0  0
  2  4  2  0  0  0  0
  2  5  1  0  0  0  0
  5  6  1  0  0  0  0
  5 10  2  0  0  0  0
  6  7  2  0  0  0  0
  6 29  1  0  0  0  0
  7  8  1  0  0  0  0
  7 30  1  0  0  0  0
  8  9  2  0  0  0  0
  8 11  1  0  0  0  0
  9 10  1  0  0  0  0
  9 31  1  0  0  0  0
 10 32  1  0  0  0  0
 11 12  1  0  0  0  0
 11 17  2  0  0  0  0
 12 13  2  0  0  0  0
 12 33  1  0  0  0  0
 13 14  1  0  0  0  0
 13 15  1  0  0  0  0
 15 16  2  0  0  0  0
 15 34  1  0  0  0  0
 16 17  1  0  0  0  0
 17 18  1  0  0  0  0
 18 19  1  0  0  0  0
 18 25  2  0  0  0  0
 19 20  2  0  0  0  0
 19 35  1  0  0  0  0
 20 21  1  0  0  0  0
 20 36  1  0  0  0  0
 21 22  1  0  0  0  0
 21 24  2  0  0  0  0
 22 23  1  0  0  0  0
 22 37  1  0  0  0  0
 22 38  1  0  0  0  0
 23 39  1  0  0  0  0
 24 25  1  0  0  0  0
 25 40  1  0  0  0  0
M  END
$$$$
