
 OpenBabel07142516413D

 38 40  0  0  0  0  0  0  0  0999 V2000
    1.3220    0.5586    0.6676 C   0  0  0  0  0  0  0  0  0  0  0  0
    2.5526    0.1932    0.0419 O   0  0  0  0  0  0  0  0  0  0  0  0
    3.3111   -0.7159    0.7297 C   0  0  0  0  0  0  0  0  0  0  0  0
    2.7082   -1.7893    1.4060 C   0  0  0  0  0  0  0  0  0  0  0  0
    3.4663   -2.6607    2.1896 C   0  0  0  0  0  0  0  0  0  0  0  0
    4.8464   -2.4926    2.2711 C   0  0  0  0  0  0  0  0  0  0  0  0
    5.4585   -1.4788    1.5314 C   0  0  0  0  0  0  0  0  0  0  0  0
    4.7080   -0.5913    0.7470 C   0  0  0  0  0  0  0  0  0  0  0  0
    5.5034    0.3269    0.1167 O   0  0  0  0  0  0  0  0  0  0  0  0
    4.9146    1.2438   -0.7907 C   0  0  0  0  0  0  0  0  0  0  0  0
    5.6407   -3.3141    3.1737 C   0  0  0  0  0  0  0  0  0  0  0  0
    5.9392   -3.0295    4.4444 C   0  0  0  0  0  0  0  0  0  0  0  0
    6.7569   -4.1516    4.9264 C   0  0  0  0  0  0  0  0  0  0  0  0
    7.2209   -4.2693    6.0472 O   0  0  0  0  0  0  0  0  0  0  0  0
    6.9162   -5.0560    3.9159 O   0  0  0  0  0  0  0  0  0  0  0  0
    6.2306   -4.5930    2.7507 C   0  0  0  0  0  0  0  0  0  0  0  0
    5.5375   -1.8475    5.1999 C   0  0  0  0  0  0  0  0  0  0  0  0
    4.3371   -1.8471    5.9227 C   0  0  0  0  0  0  0  0  0  0  0  0
    3.8800   -0.6752    6.5326 C   0  0  0  0  0  0  0  0  0  0  0  0
    4.6233    0.4986    6.4253 C   0  0  0  0  0  0  0  0  0  0  0  0
    5.8254    0.4860    5.7274 C   0  0  0  0  0  0  0  0  0  0  0  0
    6.5368    1.6163    5.6228 F   0  0  0  0  0  0  0  0  0  0  0  0
    6.2911   -0.6734    5.1167 C   0  0  0  0  0  0  0  0  0  0  0  0
    1.2081    1.6430    0.5832 H   0  0  0  0  0  0  0  0  0  0  0  0
    1.2723    0.3131    1.7356 H   0  0  0  0  0  0  0  0  0  0  0  0
    0.4938    0.0807    0.1360 H   0  0  0  0  0  0  0  0  0  0  0  0
    1.6353   -1.9510    1.3479 H   0  0  0  0  0  0  0  0  0  0  0  0
    2.9647   -3.4455    2.7502 H   0  0  0  0  0  0  0  0  0  0  0  0
    6.5380   -1.3464    1.5778 H   0  0  0  0  0  0  0  0  0  0  0  0
    5.7282    1.8138   -1.2509 H   0  0  0  0  0  0  0  0  0  0  0  0
    4.2765    1.9597   -0.2645 H   0  0  0  0  0  0  0  0  0  0  0  0
    4.3822    0.7312   -1.5979 H   0  0  0  0  0  0  0  0  0  0  0  0
    5.4737   -5.3318    2.4665 H   0  0  0  0  0  0  0  0  0  0  0  0
    6.9512   -4.4717    1.9357 H   0  0  0  0  0  0  0  0  0  0  0  0
    3.7382   -2.7525    5.9999 H   0  0  0  0  0  0  0  0  0  0  0  0
    2.9396   -0.6755    7.0780 H   0  0  0  0  0  0  0  0  0  0  0  0
    4.2739    1.4223    6.8754 H   0  0  0  0  0  0  0  0  0  0  0  0
    7.2244   -0.6368    4.5632 H   0  0  0  0  0  0  0  0  0  0  0  0
  1  2  1  0  0  0  0
  1 24  1  0  0  0  0
  1 25  1  0  0  0  0
  1 26  1  0  0  0  0
  2  3  1  0  0  0  0
  3  4  1  0  0  0  0
  3  8  2  0  0  0  0
  4  5  2  0  0  0  0
  4 27  1  0  0  0  0
  5  6  1  0  0  0  0
  5 28  1  0  0  0  0
  6  7  2  0  0  0  0
  6 11  1  0  0  0  0
  7  8  1  0  0  0  0
  7 29  1  0  0  0  0
  8  9  1  0  0  0  0
  9 10  1  0  0  0  0
 10 30  1  0  0  0  0
 10 31  1  0  0  0  0
 10 32  1  0  0  0  0
 11 12  2  0  0  0  0
 11 16  1  0  0  0  0
 12 13  1  0  0  0  0
 12 17  1  0  0  0  0
 13 14  2  0  0  0  0
 13 15  1  0  0  0  0
 15 16  1  0  0  0  0
 16 33  1  0  0  0  0
 16 34  1  0  0  0  0
 17 18  1  0  0  0  0
 17 23  2  0  0  0  0
 18 19  2  0  0  0  0
 18 35  1  0  0  0  0
 19 20  1  0  0  0  0
 19 36  1  0  0  0  0
 20 21  2  0  0  0  0
 20 37  1  0  0  0  0
 21 22  1  0  0  0  0
 21 23  1  0  0  0  0
 23 38  1  0  0  0  0
M  END
$$$$
