
 OpenBabel07142517393D

 38 40  0  0  0  0  0  0  0  0999 V2000
    4.3797   -0.0632   -1.2686 C   0  0  0  0  0  0  0  0  0  0  0  0
    3.0493   -0.0739   -0.0925 S   0  0  0  0  0  0  0  0  0  0  0  0
    1.8059    0.1022   -0.8121 O   0  0  0  0  0  0  0  0  0  0  0  0
    3.2453   -1.1972    0.8018 O   0  0  0  0  0  0  0  0  0  0  0  0
    3.3376    1.4087    0.8438 C   0  0  0  0  0  0  0  0  0  0  0  0
    2.7455    2.6104    0.4434 C   0  0  0  0  0  0  0  0  0  0  0  0
    2.9955    3.7796    1.1677 C   0  0  0  0  0  0  0  0  0  0  0  0
    3.8384    3.7405    2.2884 C   0  0  0  0  0  0  0  0  0  0  0  0
    4.3703    2.5142    2.7168 C   0  0  0  0  0  0  0  0  0  0  0  0
    4.1321    1.3498    1.9881 C   0  0  0  0  0  0  0  0  0  0  0  0
    4.1646    4.9440    2.9776 N   0  0  0  0  0  0  0  0  0  0  0  0
    3.3220    6.0286    3.1109 C   0  0  0  0  0  0  0  0  0  0  0  0
    3.9290    6.8977    3.9971 C   0  0  0  0  0  0  0  0  0  0  0  0
    5.1789    6.4050    4.3260 N   0  0  0  0  0  0  0  0  0  0  0  0
    5.3488    5.2832    3.6438 C   0  0  0  0  0  0  0  0  0  0  0  0
    6.6469    4.5871    3.5646 C   0  0  0  0  0  0  0  0  0  0  0  0
    7.5136    4.6088    4.6661 C   0  0  0  0  0  0  0  0  0  0  0  0
    8.7467    3.9477    4.6215 C   0  0  0  0  0  0  0  0  0  0  0  0
    9.1273    3.2433    3.4772 C   0  0  0  0  0  0  0  0  0  0  0  0
   10.6468    2.4252    3.4935 Cl  0  0  0  0  0  0  0  0  0  0  0  0
    8.2831    3.2288    2.3658 C   0  0  0  0  0  0  0  0  0  0  0  0
    8.6476    2.3470    0.9245 Cl  0  0  0  0  0  0  0  0  0  0  0  0
    7.0732    3.9292    2.4004 C   0  0  0  0  0  0  0  0  0  0  0  0
    3.3939    8.1840    4.5607 C   0  0  0  0  0  0  0  0  0  0  0  0
    2.1512    8.4628    4.0848 F   0  0  0  0  0  0  0  0  0  0  0  0
    3.2895    8.1477    5.9160 F   0  0  0  0  0  0  0  0  0  0  0  0
    4.1763    9.2493    4.2475 F   0  0  0  0  0  0  0  0  0  0  0  0
    4.2799   -0.9485   -1.9002 H   0  0  0  0  0  0  0  0  0  0  0  0
    5.3303   -0.0927   -0.7331 H   0  0  0  0  0  0  0  0  0  0  0  0
    4.3060    0.8398   -1.8788 H   0  0  0  0  0  0  0  0  0  0  0  0
    2.1024    2.6482   -0.4343 H   0  0  0  0  0  0  0  0  0  0  0  0
    2.5640    4.7102    0.8057 H   0  0  0  0  0  0  0  0  0  0  0  0
    4.9697    2.4349    3.6215 H   0  0  0  0  0  0  0  0  0  0  0  0
    4.5681    0.4094    2.3203 H   0  0  0  0  0  0  0  0  0  0  0  0
    2.3412    6.0634    2.6581 H   0  0  0  0  0  0  0  0  0  0  0  0
    7.2325    5.1496    5.5699 H   0  0  0  0  0  0  0  0  0  0  0  0
    9.4038    3.9852    5.4880 H   0  0  0  0  0  0  0  0  0  0  0  0
    6.4543    3.9356    1.5064 H   0  0  0  0  0  0  0  0  0  0  0  0
  1  2  1  0  0  0  0
  1 28  1  0  0  0  0
  1 29  1  0  0  0  0
  1 30  1  0  0  0  0
  2  3  2  0  0  0  0
  2  4  2  0  0  0  0
  2  5  1  0  0  0  0
  5  6  1  0  0  0  0
  5 10  2  0  0  0  0
  6  7  2  0  0  0  0
  6 31  1  0  0  0  0
  7  8  1  0  0  0  0
  7 32  1  0  0  0  0
  8  9  2  0  0  0  0
  8 11  1  0  0  0  0
  9 10  1  0  0  0  0
  9 33  1  0  0  0  0
 10 34  1  0  0  0  0
 11 12  1  0  0  0  0
 11 15  1  0  0  0  0
 12 13  2  0  0  0  0
 12 35  1  0  0  0  0
 13 14  1  0  0  0  0
 13 24  1  0  0  0  0
 14 15  2  0  0  0  0
 15 16  1  0  0  0  0
 16 17  1  0  0  0  0
 16 23  2  0  0  0  0
 17 18  2  0  0  0  0
 17 36  1  0  0  0  0
 18 19  1  0  0  0  0
 18 37  1  0  0  0  0
 19 20  1  0  0  0  0
 19 21  2  0  0  0  0
 21 22  1  0  0  0  0
 21 23  1  0  0  0  0
 23 38  1  0  0  0  0
 24 25  1  0  0  0  0
 24 26  1  0  0  0  0
 24 27  1  0  0  0  0
M  END
$$$$
