
 OpenBabel07142516303D

 49 52  0  0  0  0  0  0  0  0999 V2000
    3.2995    0.1575   -0.8073 N   0  0  0  0  0  0  0  0  0  0  0  0
    2.0122   -0.0974    0.2392 S   0  0  0  0  0  0  0  0  0  0  0  0
    0.9596    0.7941   -0.1919 O   0  0  0  0  0  0  0  0  0  0  0  0
    1.8384   -1.5289    0.3110 O   0  0  0  0  0  0  0  0  0  0  0  0
    2.6743    0.4848    1.7732 C   0  0  0  0  0  0  0  0  0  0  0  0
    2.4716    1.8048    2.1887 C   0  0  0  0  0  0  0  0  0  0  0  0
    2.9749    2.2198    3.4262 C   0  0  0  0  0  0  0  0  0  0  0  0
    3.6994    1.3190    4.2250 C   0  0  0  0  0  0  0  0  0  0  0  0
    3.8668   -0.0081    3.8105 C   0  0  0  0  0  0  0  0  0  0  0  0
    3.3558   -0.4257    2.5872 C   0  0  0  0  0  0  0  0  0  0  0  0
    4.2409    1.7497    5.4671 N   0  0  0  0  0  0  0  0  0  0  0  0
    3.5478    2.6557    6.1951 N   0  0  0  0  0  0  0  0  0  0  0  0
    4.1321    2.6667    7.4026 C   0  0  0  0  0  0  0  0  0  0  0  0
    5.2802    1.8386    7.3986 C   0  0  0  0  0  0  0  0  0  0  0  0
    5.4057    1.3389    6.1144 C   0  0  0  0  0  0  0  0  0  0  0  0
    6.5226    0.5803    5.5301 C   0  0  0  0  0  0  0  0  0  0  0  0
    7.2554   -0.3135    6.3244 C   0  0  0  0  0  0  0  0  0  0  0  0
    8.2998   -1.0671    5.7787 C   0  0  0  0  0  0  0  0  0  0  0  0
    8.6158   -0.9402    4.4291 C   0  0  0  0  0  0  0  0  0  0  0  0
    9.8690   -1.8989    3.7467 Cl  0  0  0  0  0  0  0  0  0  0  0  0
    7.9221   -0.0384    3.6298 C   0  0  0  0  0  0  0  0  0  0  0  0
    6.9022    0.7386    4.1865 C   0  0  0  0  0  0  0  0  0  0  0  0
    3.6344    3.4189    8.5754 C   0  0  0  0  0  0  0  0  0  0  0  0
    3.9003    3.0156    9.7094 O   0  0  0  0  0  0  0  0  0  0  0  0
    2.8955    4.5886    8.3792 N   0  0  0  0  0  0  0  0  0  0  0  0
    2.6623    5.2823    7.1072 C   0  0  0  0  0  0  0  0  0  0  0  0
    3.0271    6.7663    7.2235 C   0  0  0  0  0  0  0  0  0  0  0  0
    2.3678    7.3908    8.3325 O   0  0  0  0  0  0  0  0  0  0  0  0
    2.7202    6.7362    9.5622 C   0  0  0  0  0  0  0  0  0  0  0  0
    2.3019    5.2642    9.5333 C   0  0  0  0  0  0  0  0  0  0  0  0
    2.9708    0.6911   -1.6148 H   0  0  0  0  0  0  0  0  0  0  0  0
    3.7262   -0.7349   -1.0592 H   0  0  0  0  0  0  0  0  0  0  0  0
    1.9292    2.5101    1.5620 H   0  0  0  0  0  0  0  0  0  0  0  0
    2.8299    3.2518    3.7432 H   0  0  0  0  0  0  0  0  0  0  0  0
    4.3646   -0.7426    4.4411 H   0  0  0  0  0  0  0  0  0  0  0  0
    3.4806   -1.4607    2.2806 H   0  0  0  0  0  0  0  0  0  0  0  0
    5.9628    1.6955    8.2261 H   0  0  0  0  0  0  0  0  0  0  0  0
    7.0170   -0.4430    7.3782 H   0  0  0  0  0  0  0  0  0  0  0  0
    8.8537   -1.7552    6.4117 H   0  0  0  0  0  0  0  0  0  0  0  0
    8.1644    0.0668    2.5755 H   0  0  0  0  0  0  0  0  0  0  0  0
    6.3989    1.4555    3.5409 H   0  0  0  0  0  0  0  0  0  0  0  0
    1.5966    5.1675    6.8796 H   0  0  0  0  0  0  0  0  0  0  0  0
    3.2446    4.8785    6.2835 H   0  0  0  0  0  0  0  0  0  0  0  0
    2.7289    7.2919    6.3112 H   0  0  0  0  0  0  0  0  0  0  0  0
    4.1112    6.8877    7.3397 H   0  0  0  0  0  0  0  0  0  0  0  0
    2.2073    7.2582   10.3750 H   0  0  0  0  0  0  0  0  0  0  0  0
    3.8005    6.8364    9.7227 H   0  0  0  0  0  0  0  0  0  0  0  0
    1.2147    5.1891    9.4115 H   0  0  0  0  0  0  0  0  0  0  0  0
    2.5697    4.7770   10.4752 H   0  0  0  0  0  0  0  0  0  0  0  0
  1  2  1  0  0  0  0
  1 31  1  0  0  0  0
  1 32  1  0  0  0  0
  2  3  2  0  0  0  0
  2  4  2  0  0  0  0
  2  5  1  0  0  0  0
  5  6  1  0  0  0  0
  5 10  2  0  0  0  0
  6  7  2  0  0  0  0
  6 33  1  0  0  0  0
  7  8  1  0  0  0  0
  7 34  1  0  0  0  0
  8  9  2  0  0  0  0
  8 11  1  0  0  0  0
  9 10  1  0  0  0  0
  9 35  1  0  0  0  0
 10 36  1  0  0  0  0
 11 12  1  0  0  0  0
 11 15  1  0  0  0  0
 12 13  2  0  0  0  0
 13 14  1  0  0  0  0
 13 23  1  0  0  0  0
 14 15  2  0  0  0  0
 14 37  1  0  0  0  0
 15 16  1  0  0  0  0
 16 17  1  0  0  0  0
 16 22  2  0  0  0  0
 17 18  2  0  0  0  0
 17 38  1  0  0  0  0
 18 19  1  0  0  0  0
 18 39  1  0  0  0  0
 19 20  1  0  0  0  0
 19 21  2  0  0  0  0
 21 22  1  0  0  0  0
 21 40  1  0  0  0  0
 22 41  1  0  0  0  0
 23 24  2  0  0  0  0
 23 25  1  0  0  0  0
 25 26  1  0  0  0  0
 25 30  1  0  0  0  0
 26 27  1  0  0  0  0
 26 42  1  0  0  0  0
 26 43  1  0  0  0  0
 27 28  1  0  0  0  0
 27 44  1  0  0  0  0
 27 45  1  0  0  0  0
 28 29  1  0  0  0  0
 29 30  1  0  0  0  0
 29 46  1  0  0  0  0
 29 47  1  0  0  0  0
 30 48  1  0  0  0  0
 30 49  1  0  0  0  0
M  END
$$$$
