
 OpenBabel07142516303D

 42 45  0  0  0  0  0  0  0  0999 V2000
    3.8690   -0.8551    1.2000 C   0  0  0  0  0  0  0  0  0  0  0  0
    3.0048    0.3569    0.2378 S   0  0  0  0  0  0  0  0  0  0  0  0
    1.5891    0.0377    0.2617 O   0  0  0  0  0  0  0  0  0  0  0  0
    3.4792    1.6710    0.6339 O   0  0  0  0  0  0  0  0  0  0  0  0
    3.5991    0.0621   -1.4085 C   0  0  0  0  0  0  0  0  0  0  0  0
    2.8533   -0.7164   -2.2929 C   0  0  0  0  0  0  0  0  0  0  0  0
    3.3051   -0.8898   -3.6055 C   0  0  0  0  0  0  0  0  0  0  0  0
    4.5180   -0.3308   -4.0332 C   0  0  0  0  0  0  0  0  0  0  0  0
    5.2546    0.4386   -3.1157 C   0  0  0  0  0  0  0  0  0  0  0  0
    4.7908    0.6580   -1.8180 C   0  0  0  0  0  0  0  0  0  0  0  0
    5.0050   -0.4807   -5.4197 C   0  0  0  0  0  0  0  0  0  0  0  0
    5.6922    0.5665   -5.9945 N   0  0  0  0  0  0  0  0  0  0  0  0
    6.0195    0.3099   -7.2954 C   0  0  0  0  0  0  0  0  0  0  0  0
    6.7346    1.1219   -8.1856 C   0  0  0  0  0  0  0  0  0  0  0  0
    6.8454    0.6830   -9.4995 C   0  0  0  0  0  0  0  0  0  0  0  0
    6.2570   -0.5143   -9.8804 C   0  0  0  0  0  0  0  0  0  0  0  0
    6.3309   -0.8846  -11.1669 F   0  0  0  0  0  0  0  0  0  0  0  0
    5.5911   -1.3439   -8.9657 C   0  0  0  0  0  0  0  0  0  0  0  0
    5.4735   -0.9298   -7.6208 C   0  0  0  0  0  0  0  0  0  0  0  0
    4.9182   -1.4825   -6.3974 C   0  0  0  0  0  0  0  0  0  0  0  0
    4.3067   -2.7951   -6.1352 C   0  0  0  0  0  0  0  0  0  0  0  0
    4.5656   -3.4597   -4.9200 C   0  0  0  0  0  0  0  0  0  0  0  0
    3.8100   -4.5668   -4.5268 C   0  0  0  0  0  0  0  0  0  0  0  0
    2.8465   -5.0688   -5.3865 C   0  0  0  0  0  0  0  0  0  0  0  0
    2.0845   -6.0982   -4.9940 F   0  0  0  0  0  0  0  0  0  0  0  0
    2.6516   -4.5036   -6.6420 C   0  0  0  0  0  0  0  0  0  0  0  0
    3.3784   -3.3643   -7.0178 C   0  0  0  0  0  0  0  0  0  0  0  0
    3.5717   -0.7326    2.2430 H   0  0  0  0  0  0  0  0  0  0  0  0
    4.9444   -0.6927    1.1006 H   0  0  0  0  0  0  0  0  0  0  0  0
    3.5932   -1.8505    0.8475 H   0  0  0  0  0  0  0  0  0  0  0  0
    1.9164   -1.1739   -1.9832 H   0  0  0  0  0  0  0  0  0  0  0  0
    2.6842   -1.4652   -4.2892 H   0  0  0  0  0  0  0  0  0  0  0  0
    6.2018    0.8926   -3.3990 H   0  0  0  0  0  0  0  0  0  0  0  0
    5.3596    1.2982   -1.1472 H   0  0  0  0  0  0  0  0  0  0  0  0
    5.8824    1.4392   -5.5382 H   0  0  0  0  0  0  0  0  0  0  0  0
    7.1759    2.0617   -7.8677 H   0  0  0  0  0  0  0  0  0  0  0  0
    7.3783    1.2840  -10.2313 H   0  0  0  0  0  0  0  0  0  0  0  0
    5.1624   -2.2732   -9.3186 H   0  0  0  0  0  0  0  0  0  0  0  0
    5.3097   -3.0691   -4.2287 H   0  0  0  0  0  0  0  0  0  0  0  0
    3.9472   -5.0115   -3.5461 H   0  0  0  0  0  0  0  0  0  0  0  0
    1.9069   -4.9317   -7.3058 H   0  0  0  0  0  0  0  0  0  0  0  0
    3.1698   -2.9083   -7.9812 H   0  0  0  0  0  0  0  0  0  0  0  0
  1  2  1  0  0  0  0
  1 28  1  0  0  0  0
  1 29  1  0  0  0  0
  1 30  1  0  0  0  0
  2  3  2  0  0  0  0
  2  4  2  0  0  0  0
  2  5  1  0  0  0  0
  5  6  1  0  0  0  0
  5 10  2  0  0  0  0
  6  7  2  0  0  0  0
  6 31  1  0  0  0  0
  7  8  1  0  0  0  0
  7 32  1  0  0  0  0
  8  9  2  0  0  0  0
  8 11  1  0  0  0  0
  9 10  1  0  0  0  0
  9 33  1  0  0  0  0
 10 34  1  0  0  0  0
 11 12  1  0  0  0  0
 11 20  2  0  0  0  0
 12 13  1  0  0  0  0
 12 35  1  0  0  0  0
 13 14  1  0  0  0  0
 13 19  2  0  0  0  0
 14 15  2  0  0  0  0
 14 36  1  0  0  0  0
 15 16  1  0  0  0  0
 15 37  1  0  0  0  0
 16 17  1  0  0  0  0
 16 18  2  0  0  0  0
 18 19  1  0  0  0  0
 18 38  1  0  0  0  0
 19 20  1  0  0  0  0
 20 21  1  0  0  0  0
 21 22  1  0  0  0  0
 21 27  2  0  0  0  0
 22 23  2  0  0  0  0
 22 39  1  0  0  0  0
 23 24  1  0  0  0  0
 23 40  1  0  0  0  0
 24 25  1  0  0  0  0
 24 26  2  0  0  0  0
 26 27  1  0  0  0  0
 26 41  1  0  0  0  0
 27 42  1  0  0  0  0
M  END
$$$$
