
 OpenBabel07142516413D

 38 40  0  0  0  0  0  0  0  0999 V2000
    4.3805    0.2897   -1.1665 C   0  0  0  0  0  0  0  0  0  0  0  0
    2.9080    0.0471   -0.2057 S   0  0  0  0  0  0  0  0  0  0  0  0
    1.7773    0.5332   -0.9699 O   0  0  0  0  0  0  0  0  0  0  0  0
    2.9281   -1.3047    0.3255 O   0  0  0  0  0  0  0  0  0  0  0  0
    3.1453    1.1559    1.1597 C   0  0  0  0  0  0  0  0  0  0  0  0
    2.6696    2.4712    1.0802 C   0  0  0  0  0  0  0  0  0  0  0  0
    2.8982    3.3503    2.1416 C   0  0  0  0  0  0  0  0  0  0  0  0
    3.5987    2.9122    3.2747 C   0  0  0  0  0  0  0  0  0  0  0  0
    4.0082    1.5728    3.3659 C   0  0  0  0  0  0  0  0  0  0  0  0
    3.7956    0.6969    2.3036 C   0  0  0  0  0  0  0  0  0  0  0  0
    3.9073    3.8274    4.3208 N   0  0  0  0  0  0  0  0  0  0  0  0
    3.1189    4.8979    4.6898 C   0  0  0  0  0  0  0  0  0  0  0  0
    3.6548    5.4023    5.8592 C   0  0  0  0  0  0  0  0  0  0  0  0
    4.8236    4.7219    6.1480 N   0  0  0  0  0  0  0  0  0  0  0  0
    5.0160    3.8446    5.1762 C   0  0  0  0  0  0  0  0  0  0  0  0
    6.2701    3.0837    5.0193 C   0  0  0  0  0  0  0  0  0  0  0  0
    6.9965    2.7015    6.1587 C   0  0  0  0  0  0  0  0  0  0  0  0
    8.1816    1.9657    6.0429 C   0  0  0  0  0  0  0  0  0  0  0  0
    8.6488    1.5924    4.7847 C   0  0  0  0  0  0  0  0  0  0  0  0
    7.9466    1.9863    3.6560 C   0  0  0  0  0  0  0  0  0  0  0  0
    8.3746    1.6146    2.4423 F   0  0  0  0  0  0  0  0  0  0  0  0
    6.7925    2.7530    3.7609 C   0  0  0  0  0  0  0  0  0  0  0  0
    3.1254    6.5004    6.7363 C   0  0  0  0  0  0  0  0  0  0  0  0
    1.9622    7.0162    6.2507 F   0  0  0  0  0  0  0  0  0  0  0  0
    2.8587    6.0694    7.9966 F   0  0  0  0  0  0  0  0  0  0  0  0
    3.9929    7.5401    6.8423 F   0  0  0  0  0  0  0  0  0  0  0  0
    4.3256   -0.3592   -2.0423 H   0  0  0  0  0  0  0  0  0  0  0  0
    5.2494    0.0246   -0.5625 H   0  0  0  0  0  0  0  0  0  0  0  0
    4.4305    1.3341   -1.4802 H   0  0  0  0  0  0  0  0  0  0  0  0
    2.1422    2.8166    0.1958 H   0  0  0  0  0  0  0  0  0  0  0  0
    2.5670    4.3808    2.0334 H   0  0  0  0  0  0  0  0  0  0  0  0
    4.4972    1.1819    4.2560 H   0  0  0  0  0  0  0  0  0  0  0  0
    4.1437   -0.3318    2.3778 H   0  0  0  0  0  0  0  0  0  0  0  0
    2.2073    5.1566    4.1694 H   0  0  0  0  0  0  0  0  0  0  0  0
    6.6392    2.9812    7.1498 H   0  0  0  0  0  0  0  0  0  0  0  0
    8.7356    1.6850    6.9350 H   0  0  0  0  0  0  0  0  0  0  0  0
    9.5575    1.0095    4.6762 H   0  0  0  0  0  0  0  0  0  0  0  0
    6.3061    3.0592    2.8407 H   0  0  0  0  0  0  0  0  0  0  0  0
  1  2  1  0  0  0  0
  1 27  1  0  0  0  0
  1 28  1  0  0  0  0
  1 29  1  0  0  0  0
  2  3  2  0  0  0  0
  2  4  2  0  0  0  0
  2  5  1  0  0  0  0
  5  6  1  0  0  0  0
  5 10  2  0  0  0  0
  6  7  2  0  0  0  0
  6 30  1  0  0  0  0
  7  8  1  0  0  0  0
  7 31  1  0  0  0  0
  8  9  2  0  0  0  0
  8 11  1  0  0  0  0
  9 10  1  0  0  0  0
  9 32  1  0  0  0  0
 10 33  1  0  0  0  0
 11 12  1  0  0  0  0
 11 15  1  0  0  0  0
 12 13  2  0  0  0  0
 12 34  1  0  0  0  0
 13 14  1  0  0  0  0
 13 23  1  0  0  0  0
 14 15  2  0  0  0  0
 15 16  1  0  0  0  0
 16 17  1  0  0  0  0
 16 22  2  0  0  0  0
 17 18  2  0  0  0  0
 17 35  1  0  0  0  0
 18 19  1  0  0  0  0
 18 36  1  0  0  0  0
 19 20  2  0  0  0  0
 19 37  1  0  0  0  0
 20 21  1  0  0  0  0
 20 22  1  0  0  0  0
 22 38  1  0  0  0  0
 23 24  1  0  0  0  0
 23 25  1  0  0  0  0
 23 26  1  0  0  0  0
M  END
$$$$
