
 OpenBabel07142517503D

 52 55  0  0  0  0  0  0  0  0999 V2000
    1.3411   -0.1550    0.7244 C   0  0  0  0  0  0  0  0  0  0  0  0
    2.4606   -0.1506   -0.1550 O   0  0  0  0  0  0  0  0  0  0  0  0
    2.9662    1.0744   -0.4964 C   0  0  0  0  0  0  0  0  0  0  0  0
    2.5056    2.2963   -0.0314 C   0  0  0  0  0  0  0  0  0  0  0  0
    3.1224    3.4904   -0.4186 C   0  0  0  0  0  0  0  0  0  0  0  0
    4.1862    3.4582   -1.3441 C   0  0  0  0  0  0  0  0  0  0  0  0
    4.9690    4.4839   -1.8975 N   0  0  0  0  0  0  0  0  0  0  0  0
    4.7661    5.8791   -1.6891 C   0  0  0  0  0  0  0  0  0  0  0  0
    5.7470    6.6191   -1.6888 O   0  0  0  0  0  0  0  0  0  0  0  0
    3.4384    6.5077   -1.4739 C   0  0  0  0  0  0  0  0  0  0  0  0
    3.3191    7.5946   -0.6010 C   0  0  0  0  0  0  0  0  0  0  0  0
    2.0671    8.1566   -0.3467 C   0  0  0  0  0  0  0  0  0  0  0  0
    0.9306    7.6214   -0.9669 C   0  0  0  0  0  0  0  0  0  0  0  0
   -0.6243    8.2537   -0.6014 Cl  0  0  0  0  0  0  0  0  0  0  0  0
    1.0508    6.5690   -1.8735 C   0  0  0  0  0  0  0  0  0  0  0  0
    2.3078    6.0291   -2.1507 C   0  0  0  0  0  0  0  0  0  0  0  0
    5.9706    3.8855   -2.6737 C   0  0  0  0  0  0  0  0  0  0  0  0
    7.0202    4.6508   -3.4202 C   0  0  0  0  0  0  0  0  0  0  0  0
    5.7763    2.5073   -2.6708 C   0  0  0  0  0  0  0  0  0  0  0  0
    6.6146    1.4569   -3.3453 C   0  0  0  0  0  0  0  0  0  0  0  0
    6.7394    1.5530   -4.8535 C   0  0  0  0  0  0  0  0  0  0  0  0
    7.8395    1.3878   -5.3837 O   0  0  0  0  0  0  0  0  0  0  0  0
    5.5577    1.7740   -5.5521 N   0  0  0  0  0  0  0  0  0  0  0  0
    5.5812    1.8882   -6.9596 C   0  0  0  0  0  0  0  0  0  0  0  0
    6.2482    0.9455   -7.7499 C   0  0  0  0  0  0  0  0  0  0  0  0
    6.4062    1.1592   -9.1189 C   0  0  0  0  0  0  0  0  0  0  0  0
    5.9030    2.3207   -9.6993 C   0  0  0  0  0  0  0  0  0  0  0  0
    5.1855    3.2331   -8.9238 C   0  0  0  0  0  0  0  0  0  0  0  0
    4.9925    3.0015   -7.5588 C   0  0  0  0  0  0  0  0  0  0  0  0
    4.6681    2.2371   -1.8166 C   0  0  0  0  0  0  0  0  0  0  0  0
    4.0518    1.0410   -1.3774 C   0  0  0  0  0  0  0  0  0  0  0  0
    1.0593   -1.1957    0.9086 H   0  0  0  0  0  0  0  0  0  0  0  0
    0.4827    0.3477    0.2661 H   0  0  0  0  0  0  0  0  0  0  0  0
    1.5932    0.2963    1.6904 H   0  0  0  0  0  0  0  0  0  0  0  0
    1.6701    2.3668    0.6578 H   0  0  0  0  0  0  0  0  0  0  0  0
    2.7618    4.4156    0.0186 H   0  0  0  0  0  0  0  0  0  0  0  0
    4.1994    8.0080   -0.1112 H   0  0  0  0  0  0  0  0  0  0  0  0
    1.9702    8.9854    0.3443 H   0  0  0  0  0  0  0  0  0  0  0  0
    0.1699    6.1558   -2.3589 H   0  0  0  0  0  0  0  0  0  0  0  0
    2.3823    5.2068   -2.8588 H   0  0  0  0  0  0  0  0  0  0  0  0
    7.2423    5.6348   -3.0100 H   0  0  0  0  0  0  0  0  0  0  0  0
    6.7092    4.7804   -4.4619 H   0  0  0  0  0  0  0  0  0  0  0  0
    7.9674    4.1009   -3.4129 H   0  0  0  0  0  0  0  0  0  0  0  0
    6.2389    0.4507   -3.1298 H   0  0  0  0  0  0  0  0  0  0  0  0
    7.6276    1.5114   -2.9272 H   0  0  0  0  0  0  0  0  0  0  0  0
    4.8516    2.3040   -5.0561 H   0  0  0  0  0  0  0  0  0  0  0  0
    6.6684    0.0481   -7.3020 H   0  0  0  0  0  0  0  0  0  0  0  0
    6.9519    0.4364   -9.7198 H   0  0  0  0  0  0  0  0  0  0  0  0
    6.0811    2.5197  -10.7529 H   0  0  0  0  0  0  0  0  0  0  0  0
    4.8078    4.1453   -9.3781 H   0  0  0  0  0  0  0  0  0  0  0  0
    4.4660    3.7423   -6.9657 H   0  0  0  0  0  0  0  0  0  0  0  0
    4.4281    0.0766   -1.7096 H   0  0  0  0  0  0  0  0  0  0  0  0
  1  2  1  0  0  0  0
  1 32  1  0  0  0  0
  1 33  1  0  0  0  0
  1 34  1  0  0  0  0
  2  3  1  0  0  0  0
  3  4  1  0  0  0  0
  3 31  2  0  0  0  0
  4  5  2  0  0  0  0
  4 35  1  0  0  0  0
  5  6  1  0  0  0  0
  5 36  1  0  0  0  0
  6  7  1  0  0  0  0
  6 30  2  0  0  0  0
  7  8  1  0  0  0  0
  7 17  1  0  0  0  0
  8  9  2  0  0  0  0
  8 10  1  0  0  0  0
 10 11  1  0  0  0  0
 10 16  2  0  0  0  0
 11 12  2  0  0  0  0
 11 37  1  0  0  0  0
 12 13  1  0  0  0  0
 12 38  1  0  0  0  0
 13 14  1  0  0  0  0
 13 15  2  0  0  0  0
 15 16  1  0  0  0  0
 15 39  1  0  0  0  0
 16 40  1  0  0  0  0
 17 18  1  0  0  0  0
 17 19  2  0  0  0  0
 18 41  1  0  0  0  0
 18 42  1  0  0  0  0
 18 43  1  0  0  0  0
 19 20  1  0  0  0  0
 19 30  1  0  0  0  0
 20 21  1  0  0  0  0
 20 44  1  0  0  0  0
 20 45  1  0  0  0  0
 21 22  2  0  0  0  0
 21 23  1  0  0  0  0
 23 24  1  0  0  0  0
 23 46  1  0  0  0  0
 24 25  1  0  0  0  0
 24 29  2  0  0  0  0
 25 26  2  0  0  0  0
 25 47  1  0  0  0  0
 26 27  1  0  0  0  0
 26 48  1  0  0  0  0
 27 28  2  0  0  0  0
 27 49  1  0  0  0  0
 28 29  1  0  0  0  0
 28 50  1  0  0  0  0
 29 51  1  0  0  0  0
 30 31  1  0  0  0  0
 31 52  1  0  0  0  0
M  END
$$$$
