
 OpenBabel07142516103D

 35 37  0  0  0  0  0  0  0  0999 V2000
    2.8658    0.7930   -0.1701 C   0  0  0  0  0  0  0  0  0  0  0  0
    3.2476   -0.3187    1.1567 S   0  0  0  0  0  0  0  0  0  0  0  0
    4.4578    0.1454    1.7985 O   0  0  0  0  0  0  0  0  0  0  0  0
    2.0374   -0.5496    1.9168 O   0  0  0  0  0  0  0  0  0  0  0  0
    3.6472   -1.8479    0.3269 C   0  0  0  0  0  0  0  0  0  0  0  0
    4.9754   -2.1258   -0.0051 C   0  0  0  0  0  0  0  0  0  0  0  0
    5.2952   -3.3455   -0.6061 C   0  0  0  0  0  0  0  0  0  0  0  0
    4.2844   -4.2816   -0.8833 C   0  0  0  0  0  0  0  0  0  0  0  0
    2.9609   -4.0068   -0.5149 C   0  0  0  0  0  0  0  0  0  0  0  0
    2.6409   -2.7873    0.0884 C   0  0  0  0  0  0  0  0  0  0  0  0
    4.6232   -5.5028   -1.5342 N   0  0  0  0  0  0  0  0  0  0  0  0
    5.7872   -6.1943   -1.2833 C   0  0  0  0  0  0  0  0  0  0  0  0
    5.8559   -7.3241   -1.9364 N   0  0  0  0  0  0  0  0  0  0  0  0
    4.7163   -7.3663   -2.6924 C   0  0  0  0  0  0  0  0  0  0  0  0
    4.4814   -8.6678   -3.7752 Cl  0  0  0  0  0  0  0  0  0  0  0  0
    3.9139   -6.2387   -2.4974 C   0  0  0  0  0  0  0  0  0  0  0  0
    2.6918   -5.8142   -3.2171 C   0  0  0  0  0  0  0  0  0  0  0  0
    1.7357   -6.7533   -3.6371 C   0  0  0  0  0  0  0  0  0  0  0  0
    0.5884   -6.3618   -4.3395 C   0  0  0  0  0  0  0  0  0  0  0  0
    0.3568   -5.0144   -4.5903 C   0  0  0  0  0  0  0  0  0  0  0  0
   -1.2111   -4.4750   -5.4944 Br  0  0  0  0  0  0  0  0  0  0  0  0
    1.2820   -4.0618   -4.1828 C   0  0  0  0  0  0  0  0  0  0  0  0
    2.4572   -4.4668   -3.5406 C   0  0  0  0  0  0  0  0  0  0  0  0
    2.6030    1.7582    0.2688 H   0  0  0  0  0  0  0  0  0  0  0  0
    2.0177    0.4012   -0.7346 H   0  0  0  0  0  0  0  0  0  0  0  0
    3.7427    0.9051   -0.8104 H   0  0  0  0  0  0  0  0  0  0  0  0
    5.7653   -1.4063    0.2031 H   0  0  0  0  0  0  0  0  0  0  0  0
    6.3317   -3.5227   -0.8865 H   0  0  0  0  0  0  0  0  0  0  0  0
    2.1672   -4.7371   -0.6620 H   0  0  0  0  0  0  0  0  0  0  0  0
    1.6111   -2.5884    0.3812 H   0  0  0  0  0  0  0  0  0  0  0  0
    6.5282   -5.8530   -0.5713 H   0  0  0  0  0  0  0  0  0  0  0  0
    1.8616   -7.8140   -3.4330 H   0  0  0  0  0  0  0  0  0  0  0  0
   -0.1145   -7.1182   -4.6799 H   0  0  0  0  0  0  0  0  0  0  0  0
    1.1086   -3.0047   -4.3653 H   0  0  0  0  0  0  0  0  0  0  0  0
    3.1804   -3.6956   -3.2881 H   0  0  0  0  0  0  0  0  0  0  0  0
  1  2  1  0  0  0  0
  1 24  1  0  0  0  0
  1 25  1  0  0  0  0
  1 26  1  0  0  0  0
  2  3  2  0  0  0  0
  2  4  2  0  0  0  0
  2  5  1  0  0  0  0
  5  6  1  0  0  0  0
  5 10  2  0  0  0  0
  6  7  2  0  0  0  0
  6 27  1  0  0  0  0
  7  8  1  0  0  0  0
  7 28  1  0  0  0  0
  8  9  2  0  0  0  0
  8 11  1  0  0  0  0
  9 10  1  0  0  0  0
  9 29  1  0  0  0  0
 10 30  1  0  0  0  0
 11 12  1  0  0  0  0
 11 16  1  0  0  0  0
 12 13  2  0  0  0  0
 12 31  1  0  0  0  0
 13 14  1  0  0  0  0
 14 15  1  0  0  0  0
 14 16  2  0  0  0  0
 16 17  1  0  0  0  0
 17 18  1  0  0  0  0
 17 23  2  0  0  0  0
 18 19  2  0  0  0  0
 18 32  1  0  0  0  0
 19 20  1  0  0  0  0
 19 33  1  0  0  0  0
 20 21  1  0  0  0  0
 20 22  2  0  0  0  0
 22 23  1  0  0  0  0
 22 34  1  0  0  0  0
 23 35  1  0  0  0  0
M  END
$$$$
