
 OpenBabel07142516223D

 38 40  0  0  0  0  0  0  0  0999 V2000
    2.9977    0.7391   -0.9208 C   0  0  0  0  0  0  0  0  0  0  0  0
    2.5142   -0.1054    0.5612 S   0  0  0  0  0  0  0  0  0  0  0  0
    3.1938    0.5185    1.6793 O   0  0  0  0  0  0  0  0  0  0  0  0
    1.0693   -0.2422    0.5518 O   0  0  0  0  0  0  0  0  0  0  0  0
    3.1978   -1.7353    0.3709 C   0  0  0  0  0  0  0  0  0  0  0  0
    4.4551   -2.0364    0.9023 C   0  0  0  0  0  0  0  0  0  0  0  0
    4.9700   -3.3311    0.7750 C   0  0  0  0  0  0  0  0  0  0  0  0
    4.2220   -4.3194    0.1171 C   0  0  0  0  0  0  0  0  0  0  0  0
    2.9386   -4.0176   -0.3616 C   0  0  0  0  0  0  0  0  0  0  0  0
    2.4304   -2.7233   -0.2480 C   0  0  0  0  0  0  0  0  0  0  0  0
    4.7725   -5.6185   -0.0749 N   0  0  0  0  0  0  0  0  0  0  0  0
    5.5956   -6.2639    0.8254 C   0  0  0  0  0  0  0  0  0  0  0  0
    5.7718   -7.5517    0.3564 C   0  0  0  0  0  0  0  0  0  0  0  0
    5.1367   -7.6741   -0.8660 N   0  0  0  0  0  0  0  0  0  0  0  0
    4.6061   -6.4955   -1.1539 C   0  0  0  0  0  0  0  0  0  0  0  0
    4.0109   -6.1905   -2.4685 C   0  0  0  0  0  0  0  0  0  0  0  0
    3.3680   -7.2137   -3.1884 C   0  0  0  0  0  0  0  0  0  0  0  0
    2.7716   -6.9553   -4.4280 C   0  0  0  0  0  0  0  0  0  0  0  0
    2.8010   -5.6672   -4.9468 C   0  0  0  0  0  0  0  0  0  0  0  0
    2.1996   -5.4114   -6.1178 F   0  0  0  0  0  0  0  0  0  0  0  0
    3.4513   -4.6553   -4.2615 C   0  0  0  0  0  0  0  0  0  0  0  0
    3.4611   -3.4035   -4.7416 F   0  0  0  0  0  0  0  0  0  0  0  0
    4.0879   -4.9166   -3.0519 C   0  0  0  0  0  0  0  0  0  0  0  0
    6.5104   -8.6934    0.9962 C   0  0  0  0  0  0  0  0  0  0  0  0
    7.0192   -8.3471    2.2109 F   0  0  0  0  0  0  0  0  0  0  0  0
    5.7117   -9.7720    1.2062 F   0  0  0  0  0  0  0  0  0  0  0  0
    7.5608   -9.1125    0.2439 F   0  0  0  0  0  0  0  0  0  0  0  0
    2.5622    1.7364   -0.8945 H   0  0  0  0  0  0  0  0  0  0  0  0
    2.6212    0.1906   -1.7860 H   0  0  0  0  0  0  0  0  0  0  0  0
    4.0861    0.8144   -0.9494 H   0  0  0  0  0  0  0  0  0  0  0  0
    5.0411   -1.2733    1.4127 H   0  0  0  0  0  0  0  0  0  0  0  0
    5.9703   -3.5300    1.1536 H   0  0  0  0  0  0  0  0  0  0  0  0
    2.3046   -4.7769   -0.8155 H   0  0  0  0  0  0  0  0  0  0  0  0
    1.4369   -2.5015   -0.6329 H   0  0  0  0  0  0  0  0  0  0  0  0
    5.9115   -5.8065    1.7532 H   0  0  0  0  0  0  0  0  0  0  0  0
    3.3332   -8.2249   -2.7821 H   0  0  0  0  0  0  0  0  0  0  0  0
    2.2823   -7.7496   -4.9834 H   0  0  0  0  0  0  0  0  0  0  0  0
    4.6183   -4.0989   -2.5750 H   0  0  0  0  0  0  0  0  0  0  0  0
  1  2  1  0  0  0  0
  1 28  1  0  0  0  0
  1 29  1  0  0  0  0
  1 30  1  0  0  0  0
  2  3  2  0  0  0  0
  2  4  2  0  0  0  0
  2  5  1  0  0  0  0
  5  6  1  0  0  0  0
  5 10  2  0  0  0  0
  6  7  2  0  0  0  0
  6 31  1  0  0  0  0
  7  8  1  0  0  0  0
  7 32  1  0  0  0  0
  8  9  2  0  0  0  0
  8 11  1  0  0  0  0
  9 10  1  0  0  0  0
  9 33  1  0  0  0  0
 10 34  1  0  0  0  0
 11 12  1  0  0  0  0
 11 15  1  0  0  0  0
 12 13  2  0  0  0  0
 12 35  1  0  0  0  0
 13 14  1  0  0  0  0
 13 24  1  0  0  0  0
 14 15  2  0  0  0  0
 15 16  1  0  0  0  0
 16 17  1  0  0  0  0
 16 23  2  0  0  0  0
 17 18  2  0  0  0  0
 17 36  1  0  0  0  0
 18 19  1  0  0  0  0
 18 37  1  0  0  0  0
 19 20  1  0  0  0  0
 19 21  2  0  0  0  0
 21 22  1  0  0  0  0
 21 23  1  0  0  0  0
 23 38  1  0  0  0  0
 24 25  1  0  0  0  0
 24 26  1  0  0  0  0
 24 27  1  0  0  0  0
M  END
$$$$
