
 OpenBabel07142516023D

 41 43  0  0  0  0  0  0  0  0999 V2000
    3.7210    0.8285   -0.0585 C   0  0  0  0  0  0  0  0  0  0  0  0
    2.3107   -0.0013    0.6257 S   0  0  0  0  0  0  0  0  0  0  0  0
    1.9816    0.6260    1.8878 O   0  0  0  0  0  0  0  0  0  0  0  0
    1.3143   -0.1372   -0.4215 O   0  0  0  0  0  0  0  0  0  0  0  0
    2.9258   -1.6312    0.9854 C   0  0  0  0  0  0  0  0  0  0  0  0
    3.4694   -1.9016    2.2437 C   0  0  0  0  0  0  0  0  0  0  0  0
    3.9443   -3.1846    2.5311 C   0  0  0  0  0  0  0  0  0  0  0  0
    3.8808   -4.1901    1.5552 C   0  0  0  0  0  0  0  0  0  0  0  0
    3.2844   -3.9196    0.3138 C   0  0  0  0  0  0  0  0  0  0  0  0
    2.8120   -2.6372    0.0251 C   0  0  0  0  0  0  0  0  0  0  0  0
    4.4228   -5.4780    1.8307 N   0  0  0  0  0  0  0  0  0  0  0  0
    4.3858   -6.0922    3.0653 C   0  0  0  0  0  0  0  0  0  0  0  0
    4.8234   -7.3892    2.8795 C   0  0  0  0  0  0  0  0  0  0  0  0
    5.2296   -7.5419    1.5662 N   0  0  0  0  0  0  0  0  0  0  0  0
    5.0611   -6.3734    0.9649 C   0  0  0  0  0  0  0  0  0  0  0  0
    5.5486   -6.0928   -0.3980 C   0  0  0  0  0  0  0  0  0  0  0  0
    5.5588   -7.1198   -1.3517 C   0  0  0  0  0  0  0  0  0  0  0  0
    5.9517   -6.8712   -2.6722 C   0  0  0  0  0  0  0  0  0  0  0  0
    6.3382   -5.5839   -3.0686 C   0  0  0  0  0  0  0  0  0  0  0  0
    6.3822   -4.5683   -2.1054 C   0  0  0  0  0  0  0  0  0  0  0  0
    6.0272   -4.8314   -0.7804 C   0  0  0  0  0  0  0  0  0  0  0  0
    6.6980   -5.2700   -4.4998 C   0  0  0  0  0  0  0  0  0  0  0  0
    6.6790   -6.3537   -5.3220 F   0  0  0  0  0  0  0  0  0  0  0  0
    5.8443   -4.3637   -5.0546 F   0  0  0  0  0  0  0  0  0  0  0  0
    7.9415   -4.7281   -4.6171 F   0  0  0  0  0  0  0  0  0  0  0  0
    4.8767   -8.5108    3.8774 C   0  0  0  0  0  0  0  0  0  0  0  0
    4.4083   -8.1219    5.0957 F   0  0  0  0  0  0  0  0  0  0  0  0
    4.1233   -9.5756    3.4981 F   0  0  0  0  0  0  0  0  0  0  0  0
    6.1411   -8.9639    4.0781 F   0  0  0  0  0  0  0  0  0  0  0  0
    3.4183    1.8422   -0.3286 H   0  0  0  0  0  0  0  0  0  0  0  0
    4.0552    0.2932   -0.9492 H   0  0  0  0  0  0  0  0  0  0  0  0
    4.5121    0.8655    0.6920 H   0  0  0  0  0  0  0  0  0  0  0  0
    3.5316   -1.1240    3.0027 H   0  0  0  0  0  0  0  0  0  0  0  0
    4.3999   -3.3604    3.5034 H   0  0  0  0  0  0  0  0  0  0  0  0
    3.1570   -4.6957   -0.4389 H   0  0  0  0  0  0  0  0  0  0  0  0
    2.3526   -2.4407   -0.9421 H   0  0  0  0  0  0  0  0  0  0  0  0
    3.9681   -5.6130    3.9402 H   0  0  0  0  0  0  0  0  0  0  0  0
    5.2513   -8.1264   -1.0688 H   0  0  0  0  0  0  0  0  0  0  0  0
    5.9426   -7.6901   -3.3904 H   0  0  0  0  0  0  0  0  0  0  0  0
    6.6901   -3.5615   -2.3850 H   0  0  0  0  0  0  0  0  0  0  0  0
    6.1082   -4.0217   -0.0592 H   0  0  0  0  0  0  0  0  0  0  0  0
  1  2  1  0  0  0  0
  1 30  1  0  0  0  0
  1 31  1  0  0  0  0
  1 32  1  0  0  0  0
  2  3  2  0  0  0  0
  2  4  2  0  0  0  0
  2  5  1  0  0  0  0
  5  6  1  0  0  0  0
  5 10  2  0  0  0  0
  6  7  2  0  0  0  0
  6 33  1  0  0  0  0
  7  8  1  0  0  0  0
  7 34  1  0  0  0  0
  8  9  2  0  0  0  0
  8 11  1  0  0  0  0
  9 10  1  0  0  0  0
  9 35  1  0  0  0  0
 10 36  1  0  0  0  0
 11 12  1  0  0  0  0
 11 15  1  0  0  0  0
 12 13  2  0  0  0  0
 12 37  1  0  0  0  0
 13 14  1  0  0  0  0
 13 26  1  0  0  0  0
 14 15  2  0  0  0  0
 15 16  1  0  0  0  0
 16 17  1  0  0  0  0
 16 21  2  0  0  0  0
 17 18  2  0  0  0  0
 17 38  1  0  0  0  0
 18 19  1  0  0  0  0
 18 39  1  0  0  0  0
 19 20  2  0  0  0  0
 19 22  1  0  0  0  0
 20 21  1  0  0  0  0
 20 40  1  0  0  0  0
 21 41  1  0  0  0  0
 22 23  1  0  0  0  0
 22 24  1  0  0  0  0
 22 25  1  0  0  0  0
 26 27  1  0  0  0  0
 26 28  1  0  0  0  0
 26 29  1  0  0  0  0
M  END
$$$$
