
 OpenBabel07142517583D

 54 57  0  0  0  0  0  0  0  0999 V2000
    2.3098   -0.6364    1.6453 C   0  0  0  0  0  0  0  0  0  0  0  0
    3.0505   -0.0640    0.1391 S   0  0  0  0  0  0  0  0  0  0  0  0
    4.2770   -0.8051   -0.0731 O   0  0  0  0  0  0  0  0  0  0  0  0
    2.0187   -0.0293   -0.8777 O   0  0  0  0  0  0  0  0  0  0  0  0
    3.5027    1.6165    0.4989 C   0  0  0  0  0  0  0  0  0  0  0  0
    4.7571    1.9131    1.0329 C   0  0  0  0  0  0  0  0  0  0  0  0
    5.0877    3.2447    1.3295 C   0  0  0  0  0  0  0  0  0  0  0  0
    4.2006    4.3002    1.0394 C   0  0  0  0  0  0  0  0  0  0  0  0
    3.0031    3.9669    0.3851 C   0  0  0  0  0  0  0  0  0  0  0  0
    2.6217    2.6401    0.1737 C   0  0  0  0  0  0  0  0  0  0  0  0
    4.4610    5.7074    1.4736 C   0  0  0  0  0  0  0  0  0  0  0  0
    6.0915    6.2519    1.4500 S   0  0  0  0  0  0  0  0  0  0  0  0
    5.6965    7.8016    1.9969 C   0  0  0  0  0  0  0  0  0  0  0  0
    6.7148    8.7714    2.1922 C   0  0  0  0  0  0  0  0  0  0  0  0
    7.5095    9.6013    2.3125 N   0  0  0  0  0  0  0  0  0  0  0  0
    4.3497    7.9558    2.2457 C   0  0  0  0  0  0  0  0  0  0  0  0
    3.5726    9.3800    2.9977 S   0  0  0  0  0  0  0  0  0  0  0  0
    4.3192   10.8712    2.2773 C   0  0  0  0  0  0  0  0  0  0  0  0
    4.3743   10.8749    0.7609 C   0  0  0  0  0  0  0  0  0  0  0  0
    3.4849   10.3520    0.0915 O   0  0  0  0  0  0  0  0  0  0  0  0
    5.4974   11.5224    0.2472 N   0  0  0  0  0  0  0  0  0  0  0  0
    5.7678   11.7109   -1.1291 C   0  0  0  0  0  0  0  0  0  0  0  0
    4.7818   11.5866   -2.1097 C   0  0  0  0  0  0  0  0  0  0  0  0
    5.0846   11.7413   -3.4620 C   0  0  0  0  0  0  0  0  0  0  0  0
    6.3856   12.0394   -3.8517 C   0  0  0  0  0  0  0  0  0  0  0  0
    7.3742   12.1921   -2.8880 C   0  0  0  0  0  0  0  0  0  0  0  0
    7.0721   12.0403   -1.5251 C   0  0  0  0  0  0  0  0  0  0  0  0
    3.6024    6.7283    1.9292 C   0  0  0  0  0  0  0  0  0  0  0  0
    2.1391    6.5285    2.0701 C   0  0  0  0  0  0  0  0  0  0  0  0
    1.2340    7.5255    1.6661 C   0  0  0  0  0  0  0  0  0  0  0  0
   -0.1449    7.3384    1.7962 C   0  0  0  0  0  0  0  0  0  0  0  0
   -0.6314    6.1136    2.2246 C   0  0  0  0  0  0  0  0  0  0  0  0
   -1.9521    5.9139    2.3048 F   0  0  0  0  0  0  0  0  0  0  0  0
    0.2330    5.0888    2.5738 C   0  0  0  0  0  0  0  0  0  0  0  0
    1.6081    5.3257    2.5692 C   0  0  0  0  0  0  0  0  0  0  0  0
    2.0297   -1.6842    1.5072 H   0  0  0  0  0  0  0  0  0  0  0  0
    1.4205   -0.0408    1.8586 H   0  0  0  0  0  0  0  0  0  0  0  0
    3.0375   -0.5517    2.4547 H   0  0  0  0  0  0  0  0  0  0  0  0
    5.4787    1.1235    1.2336 H   0  0  0  0  0  0  0  0  0  0  0  0
    6.0506    3.4312    1.8025 H   0  0  0  0  0  0  0  0  0  0  0  0
    2.2992    4.7424    0.0913 H   0  0  0  0  0  0  0  0  0  0  0  0
    1.6373    2.4315   -0.2405 H   0  0  0  0  0  0  0  0  0  0  0  0
    5.3014   11.0327    2.7208 H   0  0  0  0  0  0  0  0  0  0  0  0
    3.6991   11.7279    2.5666 H   0  0  0  0  0  0  0  0  0  0  0  0
    6.2490   11.7675    0.8873 H   0  0  0  0  0  0  0  0  0  0  0  0
    3.7458   11.3835   -1.8553 H   0  0  0  0  0  0  0  0  0  0  0  0
    4.2953   11.6206   -4.1991 H   0  0  0  0  0  0  0  0  0  0  0  0
    6.6160   12.1420   -4.9105 H   0  0  0  0  0  0  0  0  0  0  0  0
    8.3961   12.4135   -3.2012 H   0  0  0  0  0  0  0  0  0  0  0  0
    7.8719   12.1542   -0.8000 H   0  0  0  0  0  0  0  0  0  0  0  0
    1.5805    8.4689    1.2518 H   0  0  0  0  0  0  0  0  0  0  0  0
   -0.8349    8.1397    1.5526 H   0  0  0  0  0  0  0  0  0  0  0  0
   -0.1596    4.1150    2.8446 H   0  0  0  0  0  0  0  0  0  0  0  0
    2.2599    4.5150    2.8868 H   0  0  0  0  0  0  0  0  0  0  0  0
  1  2  1  0  0  0  0
  1 36  1  0  0  0  0
  1 37  1  0  0  0  0
  1 38  1  0  0  0  0
  2  3  2  0  0  0  0
  2  4  2  0  0  0  0
  2  5  1  0  0  0  0
  5  6  1  0  0  0  0
  5 10  2  0  0  0  0
  6  7  2  0  0  0  0
  6 39  1  0  0  0  0
  7  8  1  0  0  0  0
  7 40  1  0  0  0  0
  8  9  2  0  0  0  0
  8 11  1  0  0  0  0
  9 10  1  0  0  0  0
  9 41  1  0  0  0  0
 10 42  1  0  0  0  0
 11 12  1  0  0  0  0
 11 28  2  0  0  0  0
 12 13  1  0  0  0  0
 13 14  1  0  0  0  0
 13 16  2  0  0  0  0
 14 15  3  0  0  0  0
 16 17  1  0  0  0  0
 16 28  1  0  0  0  0
 17 18  1  0  0  0  0
 18 19  1  0  0  0  0
 18 43  1  0  0  0  0
 18 44  1  0  0  0  0
 19 20  2  0  0  0  0
 19 21  1  0  0  0  0
 21 22  1  0  0  0  0
 21 45  1  0  0  0  0
 22 23  1  0  0  0  0
 22 27  2  0  0  0  0
 23 24  2  0  0  0  0
 23 46  1  0  0  0  0
 24 25  1  0  0  0  0
 24 47  1  0  0  0  0
 25 26  2  0  0  0  0
 25 48  1  0  0  0  0
 26 27  1  0  0  0  0
 26 49  1  0  0  0  0
 27 50  1  0  0  0  0
 28 29  1  0  0  0  0
 29 30  1  0  0  0  0
 29 35  2  0  0  0  0
 30 31  2  0  0  0  0
 30 51  1  0  0  0  0
 31 32  1  0  0  0  0
 31 52  1  0  0  0  0
 32 33  1  0  0  0  0
 32 34  2  0  0  0  0
 34 35  1  0  0  0  0
 34 53  1  0  0  0  0
 35 54  1  0  0  0  0
M  END
$$$$
