
 OpenBabel07142517503D

 35 37  0  0  0  0  0  0  0  0999 V2000
    2.7209    1.0792    0.0381 C   0  0  0  0  0  0  0  0  0  0  0  0
    3.5282   -0.3487    0.7162 S   0  0  0  0  0  0  0  0  0  0  0  0
    4.8277    0.0630    1.2067 O   0  0  0  0  0  0  0  0  0  0  0  0
    2.5855   -1.0240    1.5852 O   0  0  0  0  0  0  0  0  0  0  0  0
    3.8005   -1.3911   -0.6972 C   0  0  0  0  0  0  0  0  0  0  0  0
    4.9753   -1.2657   -1.4412 C   0  0  0  0  0  0  0  0  0  0  0  0
    5.1945   -2.1172   -2.5304 C   0  0  0  0  0  0  0  0  0  0  0  0
    4.2649   -3.1162   -2.8679 C   0  0  0  0  0  0  0  0  0  0  0  0
    3.1300   -3.2664   -2.0575 C   0  0  0  0  0  0  0  0  0  0  0  0
    2.8786   -2.3918   -0.9975 C   0  0  0  0  0  0  0  0  0  0  0  0
    4.5216   -4.0022   -4.0162 C   0  0  0  0  0  0  0  0  0  0  0  0
    5.7367   -4.5710   -4.3739 C   0  0  0  0  0  0  0  0  0  0  0  0
    5.6206   -5.4274   -5.4240 N   0  0  0  0  0  0  0  0  0  0  0  0
    4.3501   -5.3937   -5.7347 C   0  0  0  0  0  0  0  0  0  0  0  0
    3.7477   -6.1608   -7.1410 Cl  0  0  0  0  0  0  0  0  0  0  0  0
    3.6000   -4.5381   -4.9410 N   0  0  0  0  0  0  0  0  0  0  0  0
    2.2004   -4.2507   -5.0406 C   0  0  0  0  0  0  0  0  0  0  0  0
    1.2794   -5.2636   -5.3538 C   0  0  0  0  0  0  0  0  0  0  0  0
   -0.0912   -4.9860   -5.3809 C   0  0  0  0  0  0  0  0  0  0  0  0
   -0.5427   -3.7099   -5.0723 C   0  0  0  0  0  0  0  0  0  0  0  0
   -1.8573   -3.4569   -5.0629 F   0  0  0  0  0  0  0  0  0  0  0  0
    0.3521   -2.6945   -4.7652 C   0  0  0  0  0  0  0  0  0  0  0  0
    1.7244   -2.9566   -4.7732 C   0  0  0  0  0  0  0  0  0  0  0  0
    2.5092    1.7697    0.8598 H   0  0  0  0  0  0  0  0  0  0  0  0
    1.7867    0.7729   -0.4349 H   0  0  0  0  0  0  0  0  0  0  0  0
    3.3850    1.5591   -0.6831 H   0  0  0  0  0  0  0  0  0  0  0  0
    5.7276   -0.5246   -1.1781 H   0  0  0  0  0  0  0  0  0  0  0  0
    6.1119   -1.9966   -3.1048 H   0  0  0  0  0  0  0  0  0  0  0  0
    2.4141   -4.0641   -2.2432 H   0  0  0  0  0  0  0  0  0  0  0  0
    1.9729   -2.5154   -0.4073 H   0  0  0  0  0  0  0  0  0  0  0  0
    6.6977   -4.4187   -3.8962 H   0  0  0  0  0  0  0  0  0  0  0  0
    1.5847   -6.2921   -5.5301 H   0  0  0  0  0  0  0  0  0  0  0  0
   -0.8096   -5.7646   -5.6205 H   0  0  0  0  0  0  0  0  0  0  0  0
   -0.0224   -1.7059   -4.5187 H   0  0  0  0  0  0  0  0  0  0  0  0
    2.4027   -2.1324   -4.5655 H   0  0  0  0  0  0  0  0  0  0  0  0
  1  2  1  0  0  0  0
  1 24  1  0  0  0  0
  1 25  1  0  0  0  0
  1 26  1  0  0  0  0
  2  3  2  0  0  0  0
  2  4  2  0  0  0  0
  2  5  1  0  0  0  0
  5  6  1  0  0  0  0
  5 10  2  0  0  0  0
  6  7  2  0  0  0  0
  6 27  1  0  0  0  0
  7  8  1  0  0  0  0
  7 28  1  0  0  0  0
  8  9  2  0  0  0  0
  8 11  1  0  0  0  0
  9 10  1  0  0  0  0
  9 29  1  0  0  0  0
 10 30  1  0  0  0  0
 11 12  2  0  0  0  0
 11 16  1  0  0  0  0
 12 13  1  0  0  0  0
 12 31  1  0  0  0  0
 13 14  2  0  0  0  0
 14 15  1  0  0  0  0
 14 16  1  0  0  0  0
 16 17  1  0  0  0  0
 17 18  1  0  0  0  0
 17 23  2  0  0  0  0
 18 19  2  0  0  0  0
 18 32  1  0  0  0  0
 19 20  1  0  0  0  0
 19 33  1  0  0  0  0
 20 21  1  0  0  0  0
 20 22  2  0  0  0  0
 22 23  1  0  0  0  0
 22 34  1  0  0  0  0
 23 35  1  0  0  0  0
M  END
$$$$
