
 OpenBabel07142516303D

 58 60  0  0  0  0  0  0  0  0999 V2000
    0.8412   -0.0238    0.3534 C   0  0  0  0  0  0  0  0  0  0  0  0
    2.3710    0.0511    0.0985 C   0  0  0  0  0  0  0  0  0  0  0  0
    3.0374   -0.6887    1.2791 C   0  0  0  0  0  0  0  0  0  0  0  0
    2.6154   -0.7280   -1.2150 C   0  0  0  0  0  0  0  0  0  0  0  0
    2.9153    1.4971   -0.0234 C   0  0  0  0  0  0  0  0  0  0  0  0
    2.0528    2.6031    0.1100 C   0  0  0  0  0  0  0  0  0  0  0  0
    2.5050    3.9207   -0.0355 C   0  0  0  0  0  0  0  0  0  0  0  0
    3.8620    4.1351   -0.3106 C   0  0  0  0  0  0  0  0  0  0  0  0
    4.7977    3.0869   -0.4471 C   0  0  0  0  0  0  0  0  0  0  0  0
    4.2830    1.7803   -0.2852 C   0  0  0  0  0  0  0  0  0  0  0  0
    5.1437    0.7199   -0.3532 O   0  0  0  0  0  0  0  0  0  0  0  0
    6.2949    3.4156   -0.6900 C   0  0  0  0  0  0  0  0  0  0  0  0
    6.5840    4.9424   -0.7871 C   0  0  0  0  0  0  0  0  0  0  0  0
    7.1527    2.8901    0.4784 C   0  0  0  0  0  0  0  0  0  0  0  0
    6.8124    2.8269   -2.0212 C   0  0  0  0  0  0  0  0  0  0  0  0
    1.5600    5.0420    0.1015 C   0  0  0  0  0  0  0  0  0  0  0  0
    0.4857    5.0717    0.8710 N   0  0  0  0  0  0  0  0  0  0  0  0
   -0.2071    6.2702    0.7688 N   0  0  0  0  0  0  0  0  0  0  0  0
    0.3177    7.0636   -0.1375 C   0  0  0  0  0  0  0  0  0  0  0  0
   -0.1852    8.3069   -0.4587 N   0  0  0  0  0  0  0  0  0  0  0  0
    0.0661    8.9360   -1.6548 C   0  0  0  0  0  0  0  0  0  0  0  0
    0.6855    8.4497   -2.5963 O   0  0  0  0  0  0  0  0  0  0  0  0
   -0.4454   10.2296   -1.6830 N   0  0  0  0  0  0  0  0  0  0  0  0
   -0.2340   11.0337   -2.8369 C   0  0  0  0  0  0  0  0  0  0  0  0
   -0.5049   10.5250   -4.1138 C   0  0  0  0  0  0  0  0  0  0  0  0
   -0.1647   11.2566   -5.2520 C   0  0  0  0  0  0  0  0  0  0  0  0
    0.4449   12.5016   -5.1138 C   0  0  0  0  0  0  0  0  0  0  0  0
    0.9380   13.3651   -6.5176 Cl  0  0  0  0  0  0  0  0  0  0  0  0
    0.6741   13.0441   -3.8505 C   0  0  0  0  0  0  0  0  0  0  0  0
    0.3130   12.3192   -2.7133 C   0  0  0  0  0  0  0  0  0  0  0  0
    0.6490   12.9946   -1.1578 Cl  0  0  0  0  0  0  0  0  0  0  0  0
    1.7621    6.4780   -0.8207 S   0  0  0  0  0  0  0  0  0  0  0  0
    0.5006   -1.0649    0.4154 H   0  0  0  0  0  0  0  0  0  0  0  0
    0.2717    0.4484   -0.4558 H   0  0  0  0  0  0  0  0  0  0  0  0
    0.5645    0.4578    1.2984 H   0  0  0  0  0  0  0  0  0  0  0  0
    2.6097   -1.6905    1.4080 H   0  0  0  0  0  0  0  0  0  0  0  0
    2.8914   -0.1410    2.2174 H   0  0  0  0  0  0  0  0  0  0  0  0
    4.1134   -0.8277    1.1444 H   0  0  0  0  0  0  0  0  0  0  0  0
    2.1668   -1.7281   -1.1703 H   0  0  0  0  0  0  0  0  0  0  0  0
    3.6760   -0.8757   -1.4331 H   0  0  0  0  0  0  0  0  0  0  0  0
    2.1728   -0.2048   -2.0708 H   0  0  0  0  0  0  0  0  0  0  0  0
    0.9957    2.4638    0.3258 H   0  0  0  0  0  0  0  0  0  0  0  0
    4.1979    5.1648   -0.3911 H   0  0  0  0  0  0  0  0  0  0  0  0
    5.4304    0.6534   -1.2780 H   0  0  0  0  0  0  0  0  0  0  0  0
    6.3212    5.4658    0.1396 H   0  0  0  0  0  0  0  0  0  0  0  0
    6.0335    5.4053   -1.6153 H   0  0  0  0  0  0  0  0  0  0  0  0
    7.6482    5.1358   -0.9685 H   0  0  0  0  0  0  0  0  0  0  0  0
    6.8264    3.3220    1.4316 H   0  0  0  0  0  0  0  0  0  0  0  0
    8.2082    3.1528    0.3386 H   0  0  0  0  0  0  0  0  0  0  0  0
    7.1114    1.8022    0.5779 H   0  0  0  0  0  0  0  0  0  0  0  0
    6.2172    3.1799   -2.8710 H   0  0  0  0  0  0  0  0  0  0  0  0
    6.8147    1.7367   -2.0436 H   0  0  0  0  0  0  0  0  0  0  0  0
    7.8523    3.1297   -2.1992 H   0  0  0  0  0  0  0  0  0  0  0  0
   -1.0164    8.5679    0.0488 H   0  0  0  0  0  0  0  0  0  0  0  0
   -0.3577   10.7216   -0.8004 H   0  0  0  0  0  0  0  0  0  0  0  0
   -0.9542    9.5409   -4.2344 H   0  0  0  0  0  0  0  0  0  0  0  0
   -0.3497   10.8345   -6.2366 H   0  0  0  0  0  0  0  0  0  0  0  0
    1.1590   14.0113   -3.7538 H   0  0  0  0  0  0  0  0  0  0  0  0
  1  2  1  0  0  0  0
  1 33  1  0  0  0  0
  1 34  1  0  0  0  0
  1 35  1  0  0  0  0
  2  3  1  0  0  0  0
  2  4  1  0  0  0  0
  2  5  1  0  0  0  0
  3 36  1  0  0  0  0
  3 37  1  0  0  0  0
  3 38  1  0  0  0  0
  4 39  1  0  0  0  0
  4 40  1  0  0  0  0
  4 41  1  0  0  0  0
  5  6  1  0  0  0  0
  5 10  2  0  0  0  0
  6  7  2  0  0  0  0
  6 42  1  0  0  0  0
  7  8  1  0  0  0  0
  7 16  1  0  0  0  0
  8  9  2  0  0  0  0
  8 43  1  0  0  0  0
  9 10  1  0  0  0  0
  9 12  1  0  0  0  0
 10 11  1  0  0  0  0
 11 44  1  0  0  0  0
 12 13  1  0  0  0  0
 12 14  1  0  0  0  0
 12 15  1  0  0  0  0
 13 45  1  0  0  0  0
 13 46  1  0  0  0  0
 13 47  1  0  0  0  0
 14 48  1  0  0  0  0
 14 49  1  0  0  0  0
 14 50  1  0  0  0  0
 15 51  1  0  0  0  0
 15 52  1  0  0  0  0
 15 53  1  0  0  0  0
 16 17  2  0  0  0  0
 16 32  1  0  0  0  0
 17 18  1  0  0  0  0
 18 19  2  0  0  0  0
 19 20  1  0  0  0  0
 19 32  1  0  0  0  0
 20 21  1  0  0  0  0
 20 54  1  0  0  0  0
 21 22  2  0  0  0  0
 21 23  1  0  0  0  0
 23 24  1  0  0  0  0
 23 55  1  0  0  0  0
 24 25  1  0  0  0  0
 24 30  2  0  0  0  0
 25 26  2  0  0  0  0
 25 56  1  0  0  0  0
 26 27  1  0  0  0  0
 26 57  1  0  0  0  0
 27 28  1  0  0  0  0
 27 29  2  0  0  0  0
 29 30  1  0  0  0  0
 29 58  1  0  0  0  0
 30 31  1  0  0  0  0
M  END
$$$$
