
 OpenBabel07142517043D

 38 40  0  0  0  0  0  0  0  0999 V2000
    1.7303   -0.5752   -0.0653 C   0  0  0  0  0  0  0  0  0  0  0  0
    3.4621   -0.2321    0.1083 S   0  0  0  0  0  0  0  0  0  0  0  0
    3.6904    0.2689    1.4460 O   0  0  0  0  0  0  0  0  0  0  0  0
    4.1977   -1.3763   -0.3985 O   0  0  0  0  0  0  0  0  0  0  0  0
    3.7377    1.1181   -1.0172 C   0  0  0  0  0  0  0  0  0  0  0  0
    3.5857    2.4340   -0.5776 C   0  0  0  0  0  0  0  0  0  0  0  0
    3.8189    3.4909   -1.4656 C   0  0  0  0  0  0  0  0  0  0  0  0
    4.2280    3.2454   -2.7867 C   0  0  0  0  0  0  0  0  0  0  0  0
    4.4532    1.9128   -3.1744 C   0  0  0  0  0  0  0  0  0  0  0  0
    4.1777    0.8507   -2.3114 C   0  0  0  0  0  0  0  0  0  0  0  0
    4.4197    4.3624   -3.7266 C   0  0  0  0  0  0  0  0  0  0  0  0
    4.9392    5.6209   -3.4738 C   0  0  0  0  0  0  0  0  0  0  0  0
    5.0445    6.2755   -4.7242 C   0  0  0  0  0  0  0  0  0  0  0  0
    4.6652    5.4524   -5.7180 N   0  0  0  0  0  0  0  0  0  0  0  0
    4.1433    4.3608   -5.0986 N   0  0  0  0  0  0  0  0  0  0  0  0
    3.4122    3.4088   -5.8685 C   0  0  0  0  0  0  0  0  0  0  0  0
    3.7601    3.1927   -7.2110 C   0  0  0  0  0  0  0  0  0  0  0  0
    3.1344    2.1721   -7.9324 C   0  0  0  0  0  0  0  0  0  0  0  0
    2.1522    1.3980   -7.3234 C   0  0  0  0  0  0  0  0  0  0  0  0
    1.5775    0.3994   -8.0055 F   0  0  0  0  0  0  0  0  0  0  0  0
    1.7553    1.6445   -6.0155 C   0  0  0  0  0  0  0  0  0  0  0  0
    2.3714    2.6648   -5.2917 C   0  0  0  0  0  0  0  0  0  0  0  0
    5.5211    7.6848   -4.9617 C   0  0  0  0  0  0  0  0  0  0  0  0
    5.8394    8.3095   -3.7928 F   0  0  0  0  0  0  0  0  0  0  0  0
    6.6308    7.7432   -5.7428 F   0  0  0  0  0  0  0  0  0  0  0  0
    4.5711    8.4556   -5.5556 F   0  0  0  0  0  0  0  0  0  0  0  0
    1.4859   -1.4064    0.5997 H   0  0  0  0  0  0  0  0  0  0  0  0
    1.5205   -0.8545   -1.0993 H   0  0  0  0  0  0  0  0  0  0  0  0
    1.1592    0.3104    0.2228 H   0  0  0  0  0  0  0  0  0  0  0  0
    3.2936    2.6512    0.4476 H   0  0  0  0  0  0  0  0  0  0  0  0
    3.6758    4.5105   -1.1125 H   0  0  0  0  0  0  0  0  0  0  0  0
    4.8261    1.6758   -4.1700 H   0  0  0  0  0  0  0  0  0  0  0  0
    4.3202   -0.1710   -2.6576 H   0  0  0  0  0  0  0  0  0  0  0  0
    5.2421    6.0157   -2.5120 H   0  0  0  0  0  0  0  0  0  0  0  0
    4.5490    3.7725   -7.6873 H   0  0  0  0  0  0  0  0  0  0  0  0
    3.4190    1.9645   -8.9591 H   0  0  0  0  0  0  0  0  0  0  0  0
    0.9758    1.0387   -5.5646 H   0  0  0  0  0  0  0  0  0  0  0  0
    2.0231    2.8636   -4.2816 H   0  0  0  0  0  0  0  0  0  0  0  0
  1  2  1  0  0  0  0
  1 27  1  0  0  0  0
  1 28  1  0  0  0  0
  1 29  1  0  0  0  0
  2  3  2  0  0  0  0
  2  4  2  0  0  0  0
  2  5  1  0  0  0  0
  5  6  1  0  0  0  0
  5 10  2  0  0  0  0
  6  7  2  0  0  0  0
  6 30  1  0  0  0  0
  7  8  1  0  0  0  0
  7 31  1  0  0  0  0
  8  9  2  0  0  0  0
  8 11  1  0  0  0  0
  9 10  1  0  0  0  0
  9 32  1  0  0  0  0
 10 33  1  0  0  0  0
 11 12  2  0  0  0  0
 11 15  1  0  0  0  0
 12 13  1  0  0  0  0
 12 34  1  0  0  0  0
 13 14  2  0  0  0  0
 13 23  1  0  0  0  0
 14 15  1  0  0  0  0
 15 16  1  0  0  0  0
 16 17  1  0  0  0  0
 16 22  2  0  0  0  0
 17 18  2  0  0  0  0
 17 35  1  0  0  0  0
 18 19  1  0  0  0  0
 18 36  1  0  0  0  0
 19 20  1  0  0  0  0
 19 21  2  0  0  0  0
 21 22  1  0  0  0  0
 21 37  1  0  0  0  0
 22 38  1  0  0  0  0
 23 24  1  0  0  0  0
 23 25  1  0  0  0  0
 23 26  1  0  0  0  0
M  END
$$$$
