
 OpenBabel07142516103D

 54 57  0  0  1  0  0  0  0  0999 V2000
    2.4148    0.1025    0.6035 C   0  0  0  0  0  0  0  0  0  0  0  0
    0.9279    0.1347    0.3908 C   0  0  0  0  0  0  0  0  0  0  0  0
    0.1352    1.1114    1.0085 C   0  0  0  0  0  0  0  0  0  0  0  0
   -1.2535    1.1121    0.8460 C   0  0  0  0  0  0  0  0  0  0  0  0
   -1.8532    0.1332    0.0532 C   0  0  0  0  0  0  0  0  0  0  0  0
   -1.0731   -0.8394   -0.5827 C   0  0  0  0  0  0  0  0  0  0  0  0
    0.3138   -0.8372   -0.4100 C   0  0  0  0  0  0  0  0  0  0  0  0
   -3.6173    0.0464   -0.1031 S   0  0  0  0  0  0  0  0  0  0  0  0
   -3.9412   -0.4647   -1.4216 O   0  0  0  0  0  0  0  0  0  0  0  0
   -4.1230   -0.5666    1.1098 O   0  0  0  0  0  0  0  0  0  0  0  0
   -4.2022    1.6513   -0.0966 N   0  0  0  0  0  0  0  0  0  0  0  0
   -5.0213    2.1608    0.8806 C   0  0  0  0  0  0  0  0  0  0  0  0
   -5.3051    3.4818    0.5751 C   0  0  0  0  0  0  0  0  0  0  0  0
   -6.1685    4.4028    1.3292 C   0  0  0  0  0  0  0  0  0  0  0  0
   -6.3691    5.5641    0.9660 O   0  0  0  0  0  0  0  0  0  0  0  0
   -6.9315    3.9832    2.6077 C   0  0  0  0  0  0  0  0  0  0  0  0
   -6.8916    2.8469    3.0548 O   0  0  0  0  0  0  0  0  0  0  0  0
   -7.7098    4.9866    3.1726 N   0  0  0  0  0  0  0  0  0  0  0  0
   -8.3819    4.7896    4.4728 C   0  0  1  0  0  0  0  0  0  0  0  0
   -8.5162    6.0911    5.2869 C   0  0  0  0  0  0  0  0  0  0  0  0
   -7.1935    6.6686    5.6586 C   0  0  0  0  0  0  0  0  0  0  0  0
   -6.4022    7.6242    5.0590 C   0  0  0  0  0  0  0  0  0  0  0  0
   -5.2346    7.7942    5.7521 N   0  0  0  0  0  0  0  0  0  0  0  0
   -5.3187    6.9871    6.7836 C   0  0  0  0  0  0  0  0  0  0  0  0
   -6.5010    6.3036    6.7888 N   0  0  0  0  0  0  0  0  0  0  0  0
   -9.7922    4.1995    4.3116 C   0  0  0  0  0  0  0  0  0  0  0  0
  -10.1668    3.9898    3.0286 O   0  0  0  0  0  0  0  0  0  0  0  0
  -10.5407    3.9663    5.2513 O   0  0  0  0  0  0  0  0  0  0  0  0
   -4.5940    3.7658   -0.6477 C   0  0  0  0  0  0  0  0  0  0  0  0
   -4.4719    4.9206   -1.4541 C   0  0  0  0  0  0  0  0  0  0  0  0
   -3.7053    4.8826   -2.6224 C   0  0  0  0  0  0  0  0  0  0  0  0
   -3.0673    3.7112   -3.0089 C   0  0  0  0  0  0  0  0  0  0  0  0
   -3.1669    2.5505   -2.2392 C   0  0  0  0  0  0  0  0  0  0  0  0
   -3.9267    2.5991   -1.0574 C   0  0  0  0  0  0  0  0  0  0  0  0
    2.7514    0.9469    1.2141 H   0  0  0  0  0  0  0  0  0  0  0  0
    2.9383    0.1545   -0.3564 H   0  0  0  0  0  0  0  0  0  0  0  0
    2.7012   -0.8193    1.1203 H   0  0  0  0  0  0  0  0  0  0  0  0
    0.5956    1.8710    1.6378 H   0  0  0  0  0  0  0  0  0  0  0  0
   -1.8402    1.8641    1.3668 H   0  0  0  0  0  0  0  0  0  0  0  0
   -1.5334   -1.6129   -1.1949 H   0  0  0  0  0  0  0  0  0  0  0  0
    0.9150   -1.6087   -0.8906 H   0  0  0  0  0  0  0  0  0  0  0  0
   -5.3510    1.5287    1.6970 H   0  0  0  0  0  0  0  0  0  0  0  0
   -7.5158    5.9313    2.8409 H   0  0  0  0  0  0  0  0  0  0  0  0
   -7.7994    4.0518    5.0370 H   0  0  0  0  0  0  0  0  0  0  0  0
   -9.0864    5.9008    6.2062 H   0  0  0  0  0  0  0  0  0  0  0  0
   -9.0930    6.8336    4.7207 H   0  0  0  0  0  0  0  0  0  0  0  0
   -6.6030    8.1901    4.1580 H   0  0  0  0  0  0  0  0  0  0  0  0
   -4.5676    6.8581    7.5518 H   0  0  0  0  0  0  0  0  0  0  0  0
   -6.7971    5.6459    7.4986 H   0  0  0  0  0  0  0  0  0  0  0  0
   -9.4416    4.2190    2.4156 H   0  0  0  0  0  0  0  0  0  0  0  0
   -4.9736    5.8450   -1.1757 H   0  0  0  0  0  0  0  0  0  0  0  0
   -3.6165    5.7769   -3.2362 H   0  0  0  0  0  0  0  0  0  0  0  0
   -2.4846    3.6944   -3.9281 H   0  0  0  0  0  0  0  0  0  0  0  0
   -2.6735    1.6409   -2.5709 H   0  0  0  0  0  0  0  0  0  0  0  0
  1  2  1  0  0  0  0
  1 35  1  0  0  0  0
  1 36  1  0  0  0  0
  1 37  1  0  0  0  0
  2  3  1  0  0  0  0
  2  7  2  0  0  0  0
  3  4  2  0  0  0  0
  3 38  1  0  0  0  0
  4  5  1  0  0  0  0
  4 39  1  0  0  0  0
  5  6  2  0  0  0  0
  5  8  1  0  0  0  0
  6  7  1  0  0  0  0
  6 40  1  0  0  0  0
  7 41  1  0  0  0  0
  8  9  2  0  0  0  0
  8 10  2  0  0  0  0
  8 11  1  0  0  0  0
 11 12  1  0  0  0  0
 11 34  1  0  0  0  0
 12 13  2  0  0  0  0
 12 42  1  0  0  0  0
 13 14  1  0  0  0  0
 13 29  1  0  0  0  0
 14 15  2  0  0  0  0
 14 16  1  0  0  0  0
 16 17  2  0  0  0  0
 16 18  1  0  0  0  0
 18 19  1  0  0  0  0
 18 43  1  0  0  0  0
 19 20  1  0  0  0  0
 19 26  1  0  0  0  0
 19 44  1  1  0  0  0
 20 21  1  0  0  0  0
 20 45  1  0  0  0  0
 20 46  1  0  0  0  0
 21 22  2  0  0  0  0
 21 25  1  0  0  0  0
 22 23  1  0  0  0  0
 22 47  1  0  0  0  0
 23 24  2  0  0  0  0
 24 25  1  0  0  0  0
 24 48  1  0  0  0  0
 25 49  1  0  0  0  0
 26 27  1  0  0  0  0
 26 28  2  0  0  0  0
 27 50  1  0  0  0  0
 29 30  1  0  0  0  0
 29 34  2  0  0  0  0
 30 31  2  0  0  0  0
 30 51  1  0  0  0  0
 31 32  1  0  0  0  0
 31 52  1  0  0  0  0
 32 33  2  0  0  0  0
 32 53  1  0  0  0  0
 33 34  1  0  0  0  0
 33 54  1  0  0  0  0
M  END
$$$$
