
 OpenBabel07142517353D

 43 45  0  0  0  0  0  0  0  0999 V2000
    1.9427    1.4909    0.0027 C   0  0  0  0  0  0  0  0  0  0  0  0
    0.6501    0.7261   -0.0010 C   0  0  0  0  0  0  0  0  0  0  0  0
   -0.4999    1.3097   -0.5507 C   0  0  0  0  0  0  0  0  0  0  0  0
   -1.7173    0.6194   -0.5722 C   0  0  0  0  0  0  0  0  0  0  0  0
   -1.8073   -0.6808   -0.0723 C   0  0  0  0  0  0  0  0  0  0  0  0
   -0.6346   -1.2768    0.4199 C   0  0  0  0  0  0  0  0  0  0  0  0
    0.5750   -0.5761    0.5180 C   0  0  0  0  0  0  0  0  0  0  0  0
    1.7511   -1.2420    1.1795 C   0  0  0  0  0  0  0  0  0  0  0  0
   -3.0902   -1.4047   -0.0929 C   0  0  0  0  0  0  0  0  0  0  0  0
   -4.1121   -1.3174   -1.0226 C   0  0  0  0  0  0  0  0  0  0  0  0
   -5.0281   -2.3486   -0.7144 C   0  0  0  0  0  0  0  0  0  0  0  0
   -4.5901   -3.0698    0.3329 N   0  0  0  0  0  0  0  0  0  0  0  0
   -3.5059   -2.3974    0.7992 N   0  0  0  0  0  0  0  0  0  0  0  0
   -2.9577   -2.7664    2.0620 C   0  0  0  0  0  0  0  0  0  0  0  0
   -3.0205   -4.1088    2.4650 C   0  0  0  0  0  0  0  0  0  0  0  0
   -2.4022   -4.5064    3.6521 C   0  0  0  0  0  0  0  0  0  0  0  0
   -1.7449   -3.5580    4.4429 C   0  0  0  0  0  0  0  0  0  0  0  0
   -1.7198   -2.2120    4.0735 C   0  0  0  0  0  0  0  0  0  0  0  0
   -2.3369   -1.8157    2.8872 C   0  0  0  0  0  0  0  0  0  0  0  0
   -0.9859   -4.0635    5.9577 S   0  0  0  0  0  0  0  0  0  0  0  0
    0.5566   -4.4769    5.4448 N   0  0  0  0  0  0  0  0  0  0  0  0
   -0.8230   -2.9125    6.8169 O   0  0  0  0  0  0  0  0  0  0  0  0
   -1.5996   -5.2868    6.4124 O   0  0  0  0  0  0  0  0  0  0  0  0
   -6.3072   -2.6634   -1.4403 C   0  0  0  0  0  0  0  0  0  0  0  0
   -6.5198   -1.8030   -2.4788 F   0  0  0  0  0  0  0  0  0  0  0  0
   -6.3203   -3.9134   -1.9721 F   0  0  0  0  0  0  0  0  0  0  0  0
   -7.3989   -2.5585   -0.6358 F   0  0  0  0  0  0  0  0  0  0  0  0
    1.8326    2.4706   -0.4743 H   0  0  0  0  0  0  0  0  0  0  0  0
    2.7059    0.9383   -0.5560 H   0  0  0  0  0  0  0  0  0  0  0  0
    2.2887    1.6550    1.0281 H   0  0  0  0  0  0  0  0  0  0  0  0
   -0.4609    2.3140   -0.9658 H   0  0  0  0  0  0  0  0  0  0  0  0
   -2.5887    1.1194   -0.9903 H   0  0  0  0  0  0  0  0  0  0  0  0
   -0.6526   -2.3082    0.7693 H   0  0  0  0  0  0  0  0  0  0  0  0
    1.4833   -2.2293    1.5765 H   0  0  0  0  0  0  0  0  0  0  0  0
    2.1011   -0.6408    2.0262 H   0  0  0  0  0  0  0  0  0  0  0  0
    2.5641   -1.3794    0.4649 H   0  0  0  0  0  0  0  0  0  0  0  0
   -4.1690   -0.6343   -1.8603 H   0  0  0  0  0  0  0  0  0  0  0  0
   -3.5022   -4.8581    1.8403 H   0  0  0  0  0  0  0  0  0  0  0  0
   -2.4267   -5.5534    3.9454 H   0  0  0  0  0  0  0  0  0  0  0  0
   -1.2208   -1.4704    4.6944 H   0  0  0  0  0  0  0  0  0  0  0  0
   -2.3203   -0.7600    2.6245 H   0  0  0  0  0  0  0  0  0  0  0  0
    1.2425   -3.8795    5.9029 H   0  0  0  0  0  0  0  0  0  0  0  0
    0.7124   -5.4759    5.5992 H   0  0  0  0  0  0  0  0  0  0  0  0
  1  2  1  0  0  0  0
  1 28  1  0  0  0  0
  1 29  1  0  0  0  0
  1 30  1  0  0  0  0
  2  3  1  0  0  0  0
  2  7  2  0  0  0  0
  3  4  2  0  0  0  0
  3 31  1  0  0  0  0
  4  5  1  0  0  0  0
  4 32  1  0  0  0  0
  5  6  2  0  0  0  0
  5  9  1  0  0  0  0
  6  7  1  0  0  0  0
  6 33  1  0  0  0  0
  7  8  1  0  0  0  0
  8 34  1  0  0  0  0
  8 35  1  0  0  0  0
  8 36  1  0  0  0  0
  9 10  2  0  0  0  0
  9 13  1  0  0  0  0
 10 11  1  0  0  0  0
 10 37  1  0  0  0  0
 11 12  2  0  0  0  0
 11 24  1  0  0  0  0
 12 13  1  0  0  0  0
 13 14  1  0  0  0  0
 14 15  1  0  0  0  0
 14 19  2  0  0  0  0
 15 16  2  0  0  0  0
 15 38  1  0  0  0  0
 16 17  1  0  0  0  0
 16 39  1  0  0  0  0
 17 18  2  0  0  0  0
 17 20  1  0  0  0  0
 18 19  1  0  0  0  0
 18 40  1  0  0  0  0
 19 41  1  0  0  0  0
 20 21  1  0  0  0  0
 20 22  2  0  0  0  0
 20 23  2  0  0  0  0
 21 42  1  0  0  0  0
 21 43  1  0  0  0  0
 24 25  1  0  0  0  0
 24 26  1  0  0  0  0
 24 27  1  0  0  0  0
M  END
$$$$
