
 OpenBabel07142516223D

 40 42  0  0  0  0  0  0  0  0999 V2000
    1.5119    1.5618   -1.1991 C   0  0  0  0  0  0  0  0  0  0  0  0
    0.3807    0.7673   -0.6221 C   0  0  0  0  0  0  0  0  0  0  0  0
   -0.9326    1.2608   -0.6123 C   0  0  0  0  0  0  0  0  0  0  0  0
   -1.9920    0.4985   -0.0883 C   0  0  0  0  0  0  0  0  0  0  0  0
   -1.7183   -0.8054    0.3549 C   0  0  0  0  0  0  0  0  0  0  0  0
   -0.4102   -1.2872    0.3936 C   0  0  0  0  0  0  0  0  0  0  0  0
    0.6255   -0.4986   -0.0872 C   0  0  0  0  0  0  0  0  0  0  0  0
    1.8776   -0.9748   -0.0402 F   0  0  0  0  0  0  0  0  0  0  0  0
   -3.3502    1.0783   -0.0515 C   0  0  0  0  0  0  0  0  0  0  0  0
   -3.8050    1.9107   -0.9782 N   0  0  0  0  0  0  0  0  0  0  0  0
   -5.1508    2.1092   -0.7296 C   0  0  0  0  0  0  0  0  0  0  0  0
   -5.5087    1.3904    0.3936 C   0  0  0  0  0  0  0  0  0  0  0  0
   -4.3563    0.8128    0.8859 N   0  0  0  0  0  0  0  0  0  0  0  0
   -4.2783    0.1162    2.1258 C   0  0  0  0  0  0  0  0  0  0  0  0
   -5.3691   -0.6534    2.5585 C   0  0  0  0  0  0  0  0  0  0  0  0
   -5.2834   -1.3794    3.7498 C   0  0  0  0  0  0  0  0  0  0  0  0
   -4.1124   -1.3270    4.5113 C   0  0  0  0  0  0  0  0  0  0  0  0
   -3.0356   -0.5361    4.1054 C   0  0  0  0  0  0  0  0  0  0  0  0
   -3.1226    0.1926    2.9170 C   0  0  0  0  0  0  0  0  0  0  0  0
   -4.0257   -2.1985    6.0497 S   0  0  0  0  0  0  0  0  0  0  0  0
   -3.4565   -3.7026    5.5708 N   0  0  0  0  0  0  0  0  0  0  0  0
   -2.9890   -1.6216    6.8686 O   0  0  0  0  0  0  0  0  0  0  0  0
   -5.3677   -2.4194    6.5394 O   0  0  0  0  0  0  0  0  0  0  0  0
   -6.0268    2.9847   -1.5803 C   0  0  0  0  0  0  0  0  0  0  0  0
   -5.3736    3.5529   -2.6253 F   0  0  0  0  0  0  0  0  0  0  0  0
   -7.0718    2.2857   -2.1009 F   0  0  0  0  0  0  0  0  0  0  0  0
   -6.5693    4.0008   -0.8556 F   0  0  0  0  0  0  0  0  0  0  0  0
    1.1684    2.5237   -1.5928 H   0  0  0  0  0  0  0  0  0  0  0  0
    1.9745    1.0095   -2.0241 H   0  0  0  0  0  0  0  0  0  0  0  0
    2.2669    1.7598   -0.4319 H   0  0  0  0  0  0  0  0  0  0  0  0
   -1.1400    2.2516   -1.0184 H   0  0  0  0  0  0  0  0  0  0  0  0
   -2.5150   -1.4596    0.7002 H   0  0  0  0  0  0  0  0  0  0  0  0
   -0.1949   -2.2726    0.7942 H   0  0  0  0  0  0  0  0  0  0  0  0
   -6.4558    1.3278    0.9117 H   0  0  0  0  0  0  0  0  0  0  0  0
   -6.2767   -0.7420    1.9651 H   0  0  0  0  0  0  0  0  0  0  0  0
   -6.1274   -1.9862    4.0721 H   0  0  0  0  0  0  0  0  0  0  0  0
   -2.1312   -0.4754    4.7076 H   0  0  0  0  0  0  0  0  0  0  0  0
   -2.2829    0.8279    2.6419 H   0  0  0  0  0  0  0  0  0  0  0  0
   -2.5482   -3.8765    6.0029 H   0  0  0  0  0  0  0  0  0  0  0  0
   -4.1516   -4.4180    5.7887 H   0  0  0  0  0  0  0  0  0  0  0  0
  1  2  1  0  0  0  0
  1 28  1  0  0  0  0
  1 29  1  0  0  0  0
  1 30  1  0  0  0  0
  2  3  1  0  0  0  0
  2  7  2  0  0  0  0
  3  4  2  0  0  0  0
  3 31  1  0  0  0  0
  4  5  1  0  0  0  0
  4  9  1  0  0  0  0
  5  6  2  0  0  0  0
  5 32  1  0  0  0  0
  6  7  1  0  0  0  0
  6 33  1  0  0  0  0
  7  8  1  0  0  0  0
  9 10  2  0  0  0  0
  9 13  1  0  0  0  0
 10 11  1  0  0  0  0
 11 12  2  0  0  0  0
 11 24  1  0  0  0  0
 12 13  1  0  0  0  0
 12 34  1  0  0  0  0
 13 14  1  0  0  0  0
 14 15  1  0  0  0  0
 14 19  2  0  0  0  0
 15 16  2  0  0  0  0
 15 35  1  0  0  0  0
 16 17  1  0  0  0  0
 16 36  1  0  0  0  0
 17 18  2  0  0  0  0
 17 20  1  0  0  0  0
 18 19  1  0  0  0  0
 18 37  1  0  0  0  0
 19 38  1  0  0  0  0
 20 21  1  0  0  0  0
 20 22  2  0  0  0  0
 20 23  2  0  0  0  0
 21 39  1  0  0  0  0
 21 40  1  0  0  0  0
 24 25  1  0  0  0  0
 24 26  1  0  0  0  0
 24 27  1  0  0  0  0
M  END
$$$$
