
 OpenBabel07142517163D

 46 50  0  0  1  0  0  0  0  0999 V2000
    1.0636   -0.7480   -0.1139 N   0  0  0  0  0  0  0  0  0  0  0  0
    2.4813    0.1075    0.2021 S   0  0  0  0  0  0  0  0  0  0  0  0
    3.4313   -0.3066   -0.8205 O   0  0  0  0  0  0  0  0  0  0  0  0
    2.0787    1.4859    0.3648 O   0  0  0  0  0  0  0  0  0  0  0  0
    2.9595   -0.5586    1.7545 C   0  0  0  0  0  0  0  0  0  0  0  0
    3.8196   -1.6552    1.8354 C   0  0  0  0  0  0  0  0  0  0  0  0
    4.1862   -2.1498    3.0951 C   0  0  0  0  0  0  0  0  0  0  0  0
    3.7007   -1.5490    4.2691 C   0  0  0  0  0  0  0  0  0  0  0  0
    2.8487   -0.4415    4.1597 C   0  0  0  0  0  0  0  0  0  0  0  0
    2.4848    0.0594    2.9104 C   0  0  0  0  0  0  0  0  0  0  0  0
    4.1252   -1.9660    5.6061 C   0  0  0  0  0  0  0  0  0  0  0  0
    5.3983   -2.4637    5.8923 N   0  0  0  0  0  0  0  0  0  0  0  0
    5.5666   -2.7081    7.2513 C   0  0  0  0  0  0  0  0  0  0  0  0
    4.4315   -2.2205    7.8356 C   0  0  0  0  0  0  0  0  0  0  0  0
    3.7031   -2.2610    9.1394 C   0  0  3  0  0  0  0  0  0  0  0  0
    3.0579   -0.8670    9.4001 C   0  0  0  0  0  0  0  0  0  0  0  0
    1.8860   -0.8061    8.3773 C   0  0  0  0  0  0  0  0  0  0  0  0
    2.1287   -2.0339    7.4825 C   0  0  3  0  0  0  0  0  0  0  0  0
    2.4640   -3.0592    8.6407 C   0  0  0  0  0  0  0  0  0  0  0  0
    3.4805   -1.9941    6.8193 C   0  0  0  0  0  0  0  0  0  0  0  0
    6.6673   -3.4631    7.8335 C   0  0  0  0  0  0  0  0  0  0  0  0
    7.1387   -3.1335    9.1126 C   0  0  0  0  0  0  0  0  0  0  0  0
    8.2058   -3.8306    9.6764 C   0  0  0  0  0  0  0  0  0  0  0  0
    8.7915   -4.8695    8.9656 C   0  0  0  0  0  0  0  0  0  0  0  0
    9.8490   -5.5066    9.4837 F   0  0  0  0  0  0  0  0  0  0  0  0
    8.3014   -5.2538    7.7233 C   0  0  0  0  0  0  0  0  0  0  0  0
    7.2309   -4.5568    7.1601 C   0  0  0  0  0  0  0  0  0  0  0  0
    1.0787   -1.0900   -1.0777 H   0  0  0  0  0  0  0  0  0  0  0  0
    0.2473   -0.1757    0.1044 H   0  0  0  0  0  0  0  0  0  0  0  0
    4.2095   -2.1197    0.9321 H   0  0  0  0  0  0  0  0  0  0  0  0
    4.8619   -3.0008    3.1401 H   0  0  0  0  0  0  0  0  0  0  0  0
    2.4965    0.0672    5.0519 H   0  0  0  0  0  0  0  0  0  0  0  0
    1.8490    0.9385    2.8549 H   0  0  0  0  0  0  0  0  0  0  0  0
    6.0876   -2.6917    5.1912 H   0  0  0  0  0  0  0  0  0  0  0  0
    4.2563   -2.6778    9.9797 H   0  0  0  0  0  0  0  0  0  0  0  0
    3.7560   -0.0382    9.2313 H   0  0  0  0  0  0  0  0  0  0  0  0
    2.6717   -0.7896   10.4225 H   0  0  0  0  0  0  0  0  0  0  0  0
    1.8388    0.1420    7.8388 H   0  0  0  0  0  0  0  0  0  0  0  0
    0.9375   -0.9361    8.9200 H   0  0  0  0  0  0  0  0  0  0  0  0
    1.2991   -2.3389    6.8450 H   0  0  0  0  0  0  0  0  0  0  0  0
    2.7457   -4.0497    8.2565 H   0  0  0  0  0  0  0  0  0  0  0  0
    1.6827   -3.1626    9.3971 H   0  0  0  0  0  0  0  0  0  0  0  0
    6.6814   -2.3223    9.6741 H   0  0  0  0  0  0  0  0  0  0  0  0
    8.5842   -3.5622   10.6565 H   0  0  0  0  0  0  0  0  0  0  0  0
    8.7555   -6.0907    7.2027 H   0  0  0  0  0  0  0  0  0  0  0  0
    6.8299   -4.8907    6.2063 H   0  0  0  0  0  0  0  0  0  0  0  0
  1  2  1  0  0  0  0
  1 28  1  0  0  0  0
  1 29  1  0  0  0  0
  2  3  2  0  0  0  0
  2  4  2  0  0  0  0
  2  5  1  0  0  0  0
  5  6  1  0  0  0  0
  5 10  2  0  0  0  0
  6  7  2  0  0  0  0
  6 30  1  0  0  0  0
  7  8  1  0  0  0  0
  7 31  1  0  0  0  0
  8  9  2  0  0  0  0
  8 11  1  0  0  0  0
  9 10  1  0  0  0  0
  9 32  1  0  0  0  0
 10 33  1  0  0  0  0
 11 12  1  0  0  0  0
 11 20  2  0  0  0  0
 12 13  1  0  0  0  0
 12 34  1  0  0  0  0
 13 14  2  0  0  0  0
 13 21  1  0  0  0  0
 14 15  1  0  0  0  0
 14 20  1  0  0  0  0
 15 16  1  0  0  0  0
 15 19  1  0  0  0  0
 15 35  1  0  0  0  0
 16 17  1  0  0  0  0
 16 36  1  0  0  0  0
 16 37  1  0  0  0  0
 17 18  1  0  0  0  0
 17 38  1  0  0  0  0
 17 39  1  0  0  0  0
 18 19  1  0  0  0  0
 18 20  1  0  0  0  0
 18 40  1  0  0  0  0
 19 41  1  0  0  0  0
 19 42  1  0  0  0  0
 21 22  1  0  0  0  0
 21 27  2  0  0  0  0
 22 23  2  0  0  0  0
 22 43  1  0  0  0  0
 23 24  1  0  0  0  0
 23 44  1  0  0  0  0
 24 25  1  0  0  0  0
 24 26  2  0  0  0  0
 26 27  1  0  0  0  0
 26 45  1  0  0  0  0
 27 46  1  0  0  0  0
M  END
$$$$
