
 OpenBabel07142516373D

 41 44  0  0  0  0  0  0  0  0999 V2000
    0.6341   -7.4433   -1.7805 C   0  0  0  0  0  0  0  0  0  0  0  0
   -0.1193   -5.8455   -1.5050 S   0  0  0  0  0  0  0  0  0  0  0  0
   -1.0619   -5.5895   -2.5744 O   0  0  0  0  0  0  0  0  0  0  0  0
   -0.5026   -5.7471   -0.1167 O   0  0  0  0  0  0  0  0  0  0  0  0
    1.2908   -4.8036   -1.7475 C   0  0  0  0  0  0  0  0  0  0  0  0
    1.5988   -4.4230   -3.0475 C   0  0  0  0  0  0  0  0  0  0  0  0
    2.9150   -4.1067   -3.3306 C   0  0  0  0  0  0  0  0  0  0  0  0
    3.9017   -4.1817   -2.3268 C   0  0  0  0  0  0  0  0  0  0  0  0
    3.5235   -4.3272   -0.9925 C   0  0  0  0  0  0  0  0  0  0  0  0
    2.2021   -4.6501   -0.6959 C   0  0  0  0  0  0  0  0  0  0  0  0
    5.2888   -3.9936   -2.7234 C   0  0  0  0  0  0  0  0  0  0  0  0
    5.8336   -4.6066   -3.8482 C   0  0  0  0  0  0  0  0  0  0  0  0
    6.4250   -3.6366   -4.6183 O   0  0  0  0  0  0  0  0  0  0  0  0
    6.4351   -2.4965   -3.8781 C   0  0  0  0  0  0  0  0  0  0  0  0
    6.8147   -1.2373   -4.3174 C   0  0  0  0  0  0  0  0  0  0  0  0
    6.8128   -0.2261   -3.3503 C   0  0  0  0  0  0  0  0  0  0  0  0
    6.5058   -0.4927   -2.0126 C   0  0  0  0  0  0  0  0  0  0  0  0
    6.0600   -1.7557   -1.6191 C   0  0  0  0  0  0  0  0  0  0  0  0
    5.9715   -2.7555   -2.5977 C   0  0  0  0  0  0  0  0  0  0  0  0
    5.9724   -5.9790   -4.3455 C   0  0  0  0  0  0  0  0  0  0  0  0
    5.8296   -7.0770   -3.4756 C   0  0  0  0  0  0  0  0  0  0  0  0
    6.2220   -8.3585   -3.8801 C   0  0  0  0  0  0  0  0  0  0  0  0
    6.7541   -8.5539   -5.1450 C   0  0  0  0  0  0  0  0  0  0  0  0
    7.2019   -9.7667   -5.5008 F   0  0  0  0  0  0  0  0  0  0  0  0
    6.8517   -7.5007   -6.0419 C   0  0  0  0  0  0  0  0  0  0  0  0
    6.4529   -6.2211   -5.6448 C   0  0  0  0  0  0  0  0  0  0  0  0
   -0.1329   -8.2139   -1.7105 H   0  0  0  0  0  0  0  0  0  0  0  0
    1.4014   -7.6050   -1.0193 H   0  0  0  0  0  0  0  0  0  0  0  0
    1.0866   -7.4529   -2.7753 H   0  0  0  0  0  0  0  0  0  0  0  0
    0.8635   -4.4671   -3.8478 H   0  0  0  0  0  0  0  0  0  0  0  0
    3.1823   -3.8402   -4.3530 H   0  0  0  0  0  0  0  0  0  0  0  0
    4.2515   -4.2395   -0.1911 H   0  0  0  0  0  0  0  0  0  0  0  0
    1.9116   -4.8664    0.3301 H   0  0  0  0  0  0  0  0  0  0  0  0
    7.0505   -1.0513   -5.3567 H   0  0  0  0  0  0  0  0  0  0  0  0
    7.0556    0.7911   -3.6472 H   0  0  0  0  0  0  0  0  0  0  0  0
    6.5659    0.3008   -1.2721 H   0  0  0  0  0  0  0  0  0  0  0  0
    5.7788   -1.9564   -0.5896 H   0  0  0  0  0  0  0  0  0  0  0  0
    5.4747   -6.9380   -2.4583 H   0  0  0  0  0  0  0  0  0  0  0  0
    6.1715   -9.2001   -3.1857 H   0  0  0  0  0  0  0  0  0  0  0  0
    7.2755   -7.6656   -7.0273 H   0  0  0  0  0  0  0  0  0  0  0  0
    6.5791   -5.3961   -6.3437 H   0  0  0  0  0  0  0  0  0  0  0  0
  1  2  1  0  0  0  0
  1 27  1  0  0  0  0
  1 28  1  0  0  0  0
  1 29  1  0  0  0  0
  2  3  2  0  0  0  0
  2  4  2  0  0  0  0
  2  5  1  0  0  0  0
  5  6  1  0  0  0  0
  5 10  2  0  0  0  0
  6  7  2  0  0  0  0
  6 30  1  0  0  0  0
  7  8  1  0  0  0  0
  7 31  1  0  0  0  0
  8  9  2  0  0  0  0
  8 11  1  0  0  0  0
  9 10  1  0  0  0  0
  9 32  1  0  0  0  0
 10 33  1  0  0  0  0
 11 12  2  0  0  0  0
 11 19  1  0  0  0  0
 12 13  1  0  0  0  0
 12 20  1  0  0  0  0
 13 14  1  0  0  0  0
 14 15  1  0  0  0  0
 14 19  2  0  0  0  0
 15 16  2  0  0  0  0
 15 34  1  0  0  0  0
 16 17  1  0  0  0  0
 16 35  1  0  0  0  0
 17 18  2  0  0  0  0
 17 36  1  0  0  0  0
 18 19  1  0  0  0  0
 18 37  1  0  0  0  0
 20 21  1  0  0  0  0
 20 26  2  0  0  0  0
 21 22  2  0  0  0  0
 21 38  1  0  0  0  0
 22 23  1  0  0  0  0
 22 39  1  0  0  0  0
 23 24  1  0  0  0  0
 23 25  2  0  0  0  0
 25 26  1  0  0  0  0
 25 40  1  0  0  0  0
 26 41  1  0  0  0  0
M  END
$$$$
