
 OpenBabel07142517543D

 63 66  0  0  1  0  0  0  0  0999 V2000
    3.1032   -0.8178    6.0446 C   0  0  0  0  0  0  0  0  0  0  0  0
    2.3392   -2.1234    5.7710 C   0  0  3  0  0  0  0  0  0  0  0  0
    2.8233   -3.1720    6.7714 C   0  0  0  0  0  0  0  0  0  0  0  0
    3.4848   -4.2362    6.2679 O   0  0  0  0  0  0  0  0  0  0  0  0
    2.6562   -3.0525    7.9800 O   0  0  0  0  0  0  0  0  0  0  0  0
    2.3485   -2.5826    4.3035 C   0  0  0  0  0  0  0  0  0  0  0  0
    3.4536   -2.2444    3.5001 C   0  0  0  0  0  0  0  0  0  0  0  0
    3.5535   -2.7035    2.1993 C   0  0  0  0  0  0  0  0  0  0  0  0
    2.5639   -3.5278    1.6794 C   0  0  0  0  0  0  0  0  0  0  0  0
    1.4243   -3.8834    2.4156 C   0  0  0  0  0  0  0  0  0  0  0  0
    0.4293   -4.7303    1.8354 N   0  0  0  0  0  0  0  0  0  0  0  0
    0.2969   -5.0053    0.4741 C   0  0  0  0  0  0  0  0  0  0  0  0
    1.0067   -4.5081   -0.3954 O   0  0  0  0  0  0  0  0  0  0  0  0
   -0.8758   -5.9486    0.1039 C   0  0  3  0  0  0  0  0  0  0  0  0
   -0.7361   -6.5942   -1.3070 C   0  0  0  0  0  0  0  0  0  0  0  0
   -0.6414   -5.6551   -2.5163 C   0  0  0  0  0  0  0  0  0  0  0  0
   -0.0791   -6.5293   -3.6310 C   0  0  0  0  0  0  0  0  0  0  0  0
    0.7704   -7.5969   -2.9490 C   0  0  0  0  0  0  0  0  0  0  0  0
    0.5069   -7.4829   -1.4492 C   0  0  0  0  0  0  0  0  0  0  0  0
   -2.2419   -5.2848    0.2799 C   0  0  0  0  0  0  0  0  0  0  0  0
   -2.4135   -3.9019    0.1620 C   0  0  0  0  0  0  0  0  0  0  0  0
   -3.6632   -3.3064    0.3871 C   0  0  0  0  0  0  0  0  0  0  0  0
   -4.8025   -4.0671    0.6971 C   0  0  0  0  0  0  0  0  0  0  0  0
   -4.6308   -5.4634    0.7548 C   0  0  0  0  0  0  0  0  0  0  0  0
   -3.3751   -6.0615    0.5594 C   0  0  0  0  0  0  0  0  0  0  0  0
   -6.1141   -3.4279    0.9550 C   0  0  0  0  0  0  0  0  0  0  0  0
   -6.5003   -2.2297    0.3381 C   0  0  0  0  0  0  0  0  0  0  0  0
   -7.6774   -1.5812    0.5384 N   0  0  0  0  0  0  0  0  0  0  0  0
   -8.5445   -2.1583    1.3983 C   0  0  0  0  0  0  0  0  0  0  0  0
   -8.2808   -3.3394    2.0643 C   0  0  0  0  0  0  0  0  0  0  0  0
   -9.4342   -4.0214    3.1399 Cl  0  0  0  0  0  0  0  0  0  0  0  0
   -7.0572   -3.9736    1.8437 C   0  0  0  0  0  0  0  0  0  0  0  0
    1.3025   -3.3960    3.7467 C   0  0  0  0  0  0  0  0  0  0  0  0
    0.0902   -3.7227    4.5914 C   0  0  0  0  0  0  0  0  0  0  0  0
    2.9159   -0.4684    7.0667 H   0  0  0  0  0  0  0  0  0  0  0  0
    2.7892   -0.0223    5.3596 H   0  0  0  0  0  0  0  0  0  0  0  0
    4.1877   -0.9474    5.9562 H   0  0  0  0  0  0  0  0  0  0  0  0
    1.3018   -1.9062    6.0409 H   0  0  0  0  0  0  0  0  0  0  0  0
    3.5833   -4.2443    5.2964 H   0  0  0  0  0  0  0  0  0  0  0  0
    4.2663   -1.6224    3.8684 H   0  0  0  0  0  0  0  0  0  0  0  0
    4.4059   -2.4334    1.5805 H   0  0  0  0  0  0  0  0  0  0  0  0
    2.7374   -3.8899    0.6717 H   0  0  0  0  0  0  0  0  0  0  0  0
   -0.3104   -5.0727    2.4334 H   0  0  0  0  0  0  0  0  0  0  0  0
   -0.8259   -6.7702    0.8354 H   0  0  0  0  0  0  0  0  0  0  0  0
   -1.6097   -7.2418   -1.4757 H   0  0  0  0  0  0  0  0  0  0  0  0
    0.0415   -4.8176   -2.3668 H   0  0  0  0  0  0  0  0  0  0  0  0
   -1.6120   -5.2311   -2.7893 H   0  0  0  0  0  0  0  0  0  0  0  0
    0.5099   -5.9420   -4.3440 H   0  0  0  0  0  0  0  0  0  0  0  0
   -0.8944   -7.0012   -4.1903 H   0  0  0  0  0  0  0  0  0  0  0  0
    1.8361   -7.4510   -3.1607 H   0  0  0  0  0  0  0  0  0  0  0  0
    0.5025   -8.5907   -3.3234 H   0  0  0  0  0  0  0  0  0  0  0  0
    1.3833   -7.0455   -0.9599 H   0  0  0  0  0  0  0  0  0  0  0  0
    0.3465   -8.4690   -0.9996 H   0  0  0  0  0  0  0  0  0  0  0  0
   -1.5772   -3.2535   -0.0974 H   0  0  0  0  0  0  0  0  0  0  0  0
   -3.7171   -2.2206    0.3264 H   0  0  0  0  0  0  0  0  0  0  0  0
   -5.4784   -6.1164    0.9465 H   0  0  0  0  0  0  0  0  0  0  0  0
   -3.3005   -7.1465    0.6145 H   0  0  0  0  0  0  0  0  0  0  0  0
   -5.8521   -1.7283   -0.3764 H   0  0  0  0  0  0  0  0  0  0  0  0
   -9.4798   -1.6243    1.5386 H   0  0  0  0  0  0  0  0  0  0  0  0
   -6.8388   -4.8900    2.3868 H   0  0  0  0  0  0  0  0  0  0  0  0
   -0.7743   -4.0286    3.9988 H   0  0  0  0  0  0  0  0  0  0  0  0
   -0.2604   -2.8405    5.1345 H   0  0  0  0  0  0  0  0  0  0  0  0
    0.3285   -4.5186    5.3029 H   0  0  0  0  0  0  0  0  0  0  0  0
  1  2  1  0  0  0  0
  1 35  1  0  0  0  0
  1 36  1  0  0  0  0
  1 37  1  0  0  0  0
  2  3  1  0  0  0  0
  2  6  1  0  0  0  0
  2 38  1  0  0  0  0
  3  4  1  0  0  0  0
  3  5  2  0  0  0  0
  4 39  1  0  0  0  0
  6  7  1  0  0  0  0
  6 33  2  0  0  0  0
  7  8  2  0  0  0  0
  7 40  1  0  0  0  0
  8  9  1  0  0  0  0
  8 41  1  0  0  0  0
  9 10  2  0  0  0  0
  9 42  1  0  0  0  0
 10 11  1  0  0  0  0
 10 33  1  0  0  0  0
 11 12  1  0  0  0  0
 11 43  1  0  0  0  0
 12 13  2  0  0  0  0
 12 14  1  0  0  0  0
 14 15  1  0  0  0  0
 14 20  1  0  0  0  0
 14 44  1  0  0  0  0
 15 16  1  0  0  0  0
 15 19  1  0  0  0  0
 15 45  1  0  0  0  0
 16 17  1  0  0  0  0
 16 46  1  0  0  0  0
 16 47  1  0  0  0  0
 17 18  1  0  0  0  0
 17 48  1  0  0  0  0
 17 49  1  0  0  0  0
 18 19  1  0  0  0  0
 18 50  1  0  0  0  0
 18 51  1  0  0  0  0
 19 52  1  0  0  0  0
 19 53  1  0  0  0  0
 20 21  1  0  0  0  0
 20 25  2  0  0  0  0
 21 22  2  0  0  0  0
 21 54  1  0  0  0  0
 22 23  1  0  0  0  0
 22 55  1  0  0  0  0
 23 24  2  0  0  0  0
 23 26  1  0  0  0  0
 24 25  1  0  0  0  0
 24 56  1  0  0  0  0
 25 57  1  0  0  0  0
 26 27  1  0  0  0  0
 26 32  2  0  0  0  0
 27 28  2  0  0  0  0
 27 58  1  0  0  0  0
 28 29  1  0  0  0  0
 29 30  2  0  0  0  0
 29 59  1  0  0  0  0
 30 31  1  0  0  0  0
 30 32  1  0  0  0  0
 32 60  1  0  0  0  0
 33 34  1  0  0  0  0
 34 61  1  0  0  0  0
 34 62  1  0  0  0  0
 34 63  1  0  0  0  0
M  END
$$$$
