
 OpenBabel07142516453D

 44 46  0  0  0  0  0  0  0  0999 V2000
    0.8848    0.0339   -0.0341 C   0  0  0  0  0  0  0  0  0  0  0  0
    2.3830    0.0405   -0.1184 C   0  0  0  0  0  0  0  0  0  0  0  0
    3.2241    1.1524   -0.1173 C   0  0  0  0  0  0  0  0  0  0  0  0
    4.5476    0.6473   -0.1082 C   0  0  0  0  0  0  0  0  0  0  0  0
    4.5236   -0.7403   -0.1084 C   0  0  0  0  0  0  0  0  0  0  0  0
    5.7058   -1.6321   -0.1867 C   0  0  0  0  0  0  0  0  0  0  0  0
    6.8833   -1.3072    0.5100 C   0  0  0  0  0  0  0  0  0  0  0  0
    7.9843   -2.1752    0.5154 C   0  0  0  0  0  0  0  0  0  0  0  0
    7.8999   -3.3971   -0.1554 C   0  0  0  0  0  0  0  0  0  0  0  0
    6.7689   -3.7121   -0.9017 C   0  0  0  0  0  0  0  0  0  0  0  0
    5.7007   -2.8106   -0.9491 C   0  0  0  0  0  0  0  0  0  0  0  0
    9.2664   -4.5309   -0.1141 S   0  0  0  0  0  0  0  0  0  0  0  0
    8.9592   -5.5085    1.3340 C   0  0  0  0  0  0  0  0  0  0  0  0
    9.1456   -5.4012   -1.2723 O   0  0  0  0  0  0  0  0  0  0  0  0
   10.4692   -3.7576    0.1086 O   0  0  0  0  0  0  0  0  0  0  0  0
    3.1667   -1.1232   -0.0889 N   0  0  0  0  0  0  0  0  0  0  0  0
    2.6648   -2.4687   -0.0406 C   0  0  0  0  0  0  0  0  0  0  0  0
    3.2981   -3.4365    0.7565 C   0  0  0  0  0  0  0  0  0  0  0  0
    2.9208   -4.7795    0.6676 C   0  0  0  0  0  0  0  0  0  0  0  0
    1.8721   -5.1446   -0.1658 C   0  0  0  0  0  0  0  0  0  0  0  0
    1.5247   -6.4336   -0.2658 F   0  0  0  0  0  0  0  0  0  0  0  0
    1.1916   -4.1921   -0.9121 C   0  0  0  0  0  0  0  0  0  0  0  0
    1.5956   -2.8546   -0.8631 C   0  0  0  0  0  0  0  0  0  0  0  0
    2.7894    2.5612   -0.1286 C   0  0  0  0  0  0  0  0  0  0  0  0
    1.7287    2.8775   -0.6698 O   0  0  0  0  0  0  0  0  0  0  0  0
    3.6675    3.6153    0.5565 C   0  0  0  0  0  0  0  0  0  0  0  0
    4.7863    3.1199    1.1590 F   0  0  0  0  0  0  0  0  0  0  0  0
    4.1046    4.5690   -0.3147 F   0  0  0  0  0  0  0  0  0  0  0  0
    2.9903    4.2817    1.5374 F   0  0  0  0  0  0  0  0  0  0  0  0
    0.4882    1.0083    0.2616 H   0  0  0  0  0  0  0  0  0  0  0  0
    0.5330   -0.6770    0.7197 H   0  0  0  0  0  0  0  0  0  0  0  0
    0.4394   -0.2052   -1.0036 H   0  0  0  0  0  0  0  0  0  0  0  0
    5.4575    1.2369   -0.1401 H   0  0  0  0  0  0  0  0  0  0  0  0
    6.9577   -0.3750    1.0664 H   0  0  0  0  0  0  0  0  0  0  0  0
    8.8911   -1.8904    1.0467 H   0  0  0  0  0  0  0  0  0  0  0  0
    6.7004   -4.6491   -1.4517 H   0  0  0  0  0  0  0  0  0  0  0  0
    4.8443   -3.0695   -1.5678 H   0  0  0  0  0  0  0  0  0  0  0  0
    8.0025   -6.0227    1.2256 H   0  0  0  0  0  0  0  0  0  0  0  0
    8.9532   -4.8573    2.2105 H   0  0  0  0  0  0  0  0  0  0  0  0
    9.7639   -6.2414    1.4245 H   0  0  0  0  0  0  0  0  0  0  0  0
    4.1102   -3.1705    1.4290 H   0  0  0  0  0  0  0  0  0  0  0  0
    3.4494   -5.5434    1.2292 H   0  0  0  0  0  0  0  0  0  0  0  0
    0.3729   -4.4995   -1.5565 H   0  0  0  0  0  0  0  0  0  0  0  0
    1.1050   -2.1556   -1.5327 H   0  0  0  0  0  0  0  0  0  0  0  0
  1  2  1  0  0  0  0
  1 30  1  0  0  0  0
  1 31  1  0  0  0  0
  1 32  1  0  0  0  0
  2  3  2  0  0  0  0
  2 16  1  0  0  0  0
  3  4  1  0  0  0  0
  3 24  1  0  0  0  0
  4  5  2  0  0  0  0
  4 33  1  0  0  0  0
  5  6  1  0  0  0  0
  5 16  1  0  0  0  0
  6  7  1  0  0  0  0
  6 11  2  0  0  0  0
  7  8  2  0  0  0  0
  7 34  1  0  0  0  0
  8  9  1  0  0  0  0
  8 35  1  0  0  0  0
  9 10  2  0  0  0  0
  9 12  1  0  0  0  0
 10 11  1  0  0  0  0
 10 36  1  0  0  0  0
 11 37  1  0  0  0  0
 12 13  1  0  0  0  0
 12 14  2  0  0  0  0
 12 15  2  0  0  0  0
 13 38  1  0  0  0  0
 13 39  1  0  0  0  0
 13 40  1  0  0  0  0
 16 17  1  0  0  0  0
 17 18  1  0  0  0  0
 17 23  2  0  0  0  0
 18 19  2  0  0  0  0
 18 41  1  0  0  0  0
 19 20  1  0  0  0  0
 19 42  1  0  0  0  0
 20 21  1  0  0  0  0
 20 22  2  0  0  0  0
 22 23  1  0  0  0  0
 22 43  1  0  0  0  0
 23 44  1  0  0  0  0
 24 25  2  0  0  0  0
 24 26  1  0  0  0  0
 26 27  1  0  0  0  0
 26 28  1  0  0  0  0
 26 29  1  0  0  0  0
M  END
$$$$
