
 OpenBabel07142517123D

 36 38  0  0  0  0  0  0  0  0999 V2000
    3.2188   -0.5165    1.5598 C   0  0  0  0  0  0  0  0  0  0  0  0
    2.8219    0.1143   -0.0479 S   0  0  0  0  0  0  0  0  0  0  0  0
    1.3829    0.2465   -0.1393 O   0  0  0  0  0  0  0  0  0  0  0  0
    3.6926    1.2440   -0.3179 O   0  0  0  0  0  0  0  0  0  0  0  0
    3.2982   -1.2036   -1.1393 C   0  0  0  0  0  0  0  0  0  0  0  0
    2.3774   -2.1878   -1.4891 C   0  0  0  0  0  0  0  0  0  0  0  0
    2.7535   -3.2057   -2.3759 C   0  0  0  0  0  0  0  0  0  0  0  0
    4.0352   -3.2251   -2.9481 C   0  0  0  0  0  0  0  0  0  0  0  0
    4.9269   -2.1883   -2.6117 C   0  0  0  0  0  0  0  0  0  0  0  0
    4.5788   -1.2011   -1.6923 C   0  0  0  0  0  0  0  0  0  0  0  0
    4.4352   -4.2844   -3.8913 C   0  0  0  0  0  0  0  0  0  0  0  0
    3.5158   -4.8290   -4.7714 N   0  0  0  0  0  0  0  0  0  0  0  0
    4.1213   -5.7012   -5.6206 C   0  0  0  0  0  0  0  0  0  0  0  0
    3.2666   -6.6103   -6.9988 Br  0  0  0  0  0  0  0  0  0  0  0  0
    5.4462   -5.7805   -5.2878 C   0  0  0  0  0  0  0  0  0  0  0  0
    5.6580   -4.9142   -4.1695 C   0  0  0  0  0  0  0  0  0  0  0  0
    6.9216   -4.6864   -3.4666 C   0  0  0  0  0  0  0  0  0  0  0  0
    8.1252   -4.6400   -4.1871 C   0  0  0  0  0  0  0  0  0  0  0  0
    9.3364   -4.3846   -3.5333 C   0  0  0  0  0  0  0  0  0  0  0  0
    9.3389   -4.1580   -2.1607 C   0  0  0  0  0  0  0  0  0  0  0  0
   10.4945   -3.8891   -1.5393 F   0  0  0  0  0  0  0  0  0  0  0  0
    8.1644   -4.2102   -1.4290 C   0  0  0  0  0  0  0  0  0  0  0  0
    6.9619   -4.5077   -2.0749 C   0  0  0  0  0  0  0  0  0  0  0  0
    2.9473    0.2431    2.2949 H   0  0  0  0  0  0  0  0  0  0  0  0
    4.2906   -0.7169    1.6111 H   0  0  0  0  0  0  0  0  0  0  0  0
    2.6436   -1.4277    1.7380 H   0  0  0  0  0  0  0  0  0  0  0  0
    1.3652   -2.1744   -1.0901 H   0  0  0  0  0  0  0  0  0  0  0  0
    2.0271   -3.9812   -2.6082 H   0  0  0  0  0  0  0  0  0  0  0  0
    5.9143   -2.1423   -3.0632 H   0  0  0  0  0  0  0  0  0  0  0  0
    5.3028   -0.4302   -1.4366 H   0  0  0  0  0  0  0  0  0  0  0  0
    2.5367   -4.5797   -4.8194 H   0  0  0  0  0  0  0  0  0  0  0  0
    6.1871   -6.3946   -5.7820 H   0  0  0  0  0  0  0  0  0  0  0  0
    8.1363   -4.7857   -5.2655 H   0  0  0  0  0  0  0  0  0  0  0  0
   10.2689   -4.3523   -4.0849 H   0  0  0  0  0  0  0  0  0  0  0  0
    8.1839   -4.0173   -0.3603 H   0  0  0  0  0  0  0  0  0  0  0  0
    6.0534   -4.5684   -1.4826 H   0  0  0  0  0  0  0  0  0  0  0  0
  1  2  1  0  0  0  0
  1 24  1  0  0  0  0
  1 25  1  0  0  0  0
  1 26  1  0  0  0  0
  2  3  2  0  0  0  0
  2  4  2  0  0  0  0
  2  5  1  0  0  0  0
  5  6  1  0  0  0  0
  5 10  2  0  0  0  0
  6  7  2  0  0  0  0
  6 27  1  0  0  0  0
  7  8  1  0  0  0  0
  7 28  1  0  0  0  0
  8  9  2  0  0  0  0
  8 11  1  0  0  0  0
  9 10  1  0  0  0  0
  9 29  1  0  0  0  0
 10 30  1  0  0  0  0
 11 12  1  0  0  0  0
 11 16  2  0  0  0  0
 12 13  1  0  0  0  0
 12 31  1  0  0  0  0
 13 14  1  0  0  0  0
 13 15  2  0  0  0  0
 15 16  1  0  0  0  0
 15 32  1  0  0  0  0
 16 17  1  0  0  0  0
 17 18  1  0  0  0  0
 17 23  2  0  0  0  0
 18 19  2  0  0  0  0
 18 33  1  0  0  0  0
 19 20  1  0  0  0  0
 19 34  1  0  0  0  0
 20 21  1  0  0  0  0
 20 22  2  0  0  0  0
 22 23  1  0  0  0  0
 22 35  1  0  0  0  0
 23 36  1  0  0  0  0
M  END
$$$$
