
 OpenBabel07142516303D

 52 54  0  0  0  0  0  0  0  0999 V2000
   -1.4839   -1.1071   -4.1549 C   0  0  0  0  0  0  0  0  0  0  0  0
   -2.3389    0.0114   -3.6370 C   0  0  0  0  0  0  0  0  0  0  0  0
   -3.7287   -0.0261   -3.8013 C   0  0  0  0  0  0  0  0  0  0  0  0
   -4.5169    1.0228   -3.3388 C   0  0  0  0  0  0  0  0  0  0  0  0
   -3.9153    2.1071   -2.6926 C   0  0  0  0  0  0  0  0  0  0  0  0
   -2.5327    2.1615   -2.5177 C   0  0  0  0  0  0  0  0  0  0  0  0
   -1.7471    1.1108   -2.9954 C   0  0  0  0  0  0  0  0  0  0  0  0
   -4.9597    3.3934   -2.0768 S   0  0  0  0  0  0  0  0  0  0  0  0
   -4.1723    4.3733   -1.3645 O   0  0  0  0  0  0  0  0  0  0  0  0
   -5.8456    3.7781   -3.1587 O   0  0  0  0  0  0  0  0  0  0  0  0
   -5.9253    2.5739   -0.9901 N   0  0  0  0  0  0  0  0  0  0  0  0
   -5.4365    1.9007    0.1342 C   0  0  0  0  0  0  0  0  0  0  0  0
   -4.2496    1.8345    0.4137 O   0  0  0  0  0  0  0  0  0  0  0  0
   -6.4450    1.1932    0.9776 C   0  0  0  0  0  0  0  0  0  0  0  0
   -7.8295    1.3351    0.8052 C   0  0  0  0  0  0  0  0  0  0  0  0
   -8.7154    0.6084    1.6052 C   0  0  0  0  0  0  0  0  0  0  0  0
   -8.2274   -0.2734    2.5691 C   0  0  0  0  0  0  0  0  0  0  0  0
   -6.8483   -0.4272    2.7514 C   0  0  0  0  0  0  0  0  0  0  0  0
   -5.9603    0.3243    1.9726 C   0  0  0  0  0  0  0  0  0  0  0  0
   -6.3836   -1.4223    3.7522 C   0  0  0  0  0  0  0  0  0  0  0  0
   -7.0662   -1.6903    4.7260 O   0  0  0  0  0  0  0  0  0  0  0  0
   -5.1676   -2.0453    3.4546 N   0  0  0  0  0  0  0  0  0  0  0  0
   -4.4263   -3.1783    4.4251 S   0  0  0  0  0  0  0  0  0  0  0  0
   -3.3837   -3.7595    3.6038 O   0  0  0  0  0  0  0  0  0  0  0  0
   -4.1151   -2.5531    5.6915 O   0  0  0  0  0  0  0  0  0  0  0  0
   -5.6479   -4.4413    4.6717 C   0  0  0  0  0  0  0  0  0  0  0  0
   -6.1685   -5.1286    3.5703 C   0  0  0  0  0  0  0  0  0  0  0  0
   -7.1007   -6.1508    3.7734 C   0  0  0  0  0  0  0  0  0  0  0  0
   -7.5045   -6.4973    5.0703 C   0  0  0  0  0  0  0  0  0  0  0  0
   -8.4892   -7.6056    5.3062 C   0  0  0  0  0  0  0  0  0  0  0  0
   -6.9709   -5.8012    6.1637 C   0  0  0  0  0  0  0  0  0  0  0  0
   -6.0457   -4.7742    5.9682 C   0  0  0  0  0  0  0  0  0  0  0  0
   -2.0932   -1.8998   -4.6020 H   0  0  0  0  0  0  0  0  0  0  0  0
   -0.9038   -1.5504   -3.3397 H   0  0  0  0  0  0  0  0  0  0  0  0
   -0.8036   -0.7317   -4.9255 H   0  0  0  0  0  0  0  0  0  0  0  0
   -4.2045   -0.8708   -4.2948 H   0  0  0  0  0  0  0  0  0  0  0  0
   -5.5936    0.9914   -3.4831 H   0  0  0  0  0  0  0  0  0  0  0  0
   -2.0651    3.0021   -2.0092 H   0  0  0  0  0  0  0  0  0  0  0  0
   -0.6671    1.1497   -2.8609 H   0  0  0  0  0  0  0  0  0  0  0  0
   -6.8515    2.4187   -1.3677 H   0  0  0  0  0  0  0  0  0  0  0  0
   -8.2544    2.0187    0.0765 H   0  0  0  0  0  0  0  0  0  0  0  0
   -9.7898    0.7267    1.4772 H   0  0  0  0  0  0  0  0  0  0  0  0
   -8.9280   -0.8462    3.1766 H   0  0  0  0  0  0  0  0  0  0  0  0
   -4.8868    0.2633    2.1489 H   0  0  0  0  0  0  0  0  0  0  0  0
   -4.7084   -1.9530    2.5589 H   0  0  0  0  0  0  0  0  0  0  0  0
   -5.8477   -4.8865    2.5612 H   0  0  0  0  0  0  0  0  0  0  0  0
   -7.5031   -6.6836    2.9144 H   0  0  0  0  0  0  0  0  0  0  0  0
   -8.8151   -8.0625    4.3662 H   0  0  0  0  0  0  0  0  0  0  0  0
   -9.3767   -7.2199    5.8185 H   0  0  0  0  0  0  0  0  0  0  0  0
   -8.0334   -8.3901    5.9196 H   0  0  0  0  0  0  0  0  0  0  0  0
   -7.2706   -6.0601    7.1775 H   0  0  0  0  0  0  0  0  0  0  0  0
   -5.6395   -4.2462    6.8280 H   0  0  0  0  0  0  0  0  0  0  0  0
  1  2  1  0  0  0  0
  1 33  1  0  0  0  0
  1 34  1  0  0  0  0
  1 35  1  0  0  0  0
  2  3  1  0  0  0  0
  2  7  2  0  0  0  0
  3  4  2  0  0  0  0
  3 36  1  0  0  0  0
  4  5  1  0  0  0  0
  4 37  1  0  0  0  0
  5  6  2  0  0  0  0
  5  8  1  0  0  0  0
  6  7  1  0  0  0  0
  6 38  1  0  0  0  0
  7 39  1  0  0  0  0
  8  9  2  0  0  0  0
  8 10  2  0  0  0  0
  8 11  1  0  0  0  0
 11 12  1  0  0  0  0
 11 40  1  0  0  0  0
 12 13  2  0  0  0  0
 12 14  1  0  0  0  0
 14 15  1  0  0  0  0
 14 19  2  0  0  0  0
 15 16  2  0  0  0  0
 15 41  1  0  0  0  0
 16 17  1  0  0  0  0
 16 42  1  0  0  0  0
 17 18  2  0  0  0  0
 17 43  1  0  0  0  0
 18 19  1  0  0  0  0
 18 20  1  0  0  0  0
 19 44  1  0  0  0  0
 20 21  2  0  0  0  0
 20 22  1  0  0  0  0
 22 23  1  0  0  0  0
 22 45  1  0  0  0  0
 23 24  2  0  0  0  0
 23 25  2  0  0  0  0
 23 26  1  0  0  0  0
 26 27  1  0  0  0  0
 26 32  2  0  0  0  0
 27 28  2  0  0  0  0
 27 46  1  0  0  0  0
 28 29  1  0  0  0  0
 28 47  1  0  0  0  0
 29 30  1  0  0  0  0
 29 31  2  0  0  0  0
 30 48  1  0  0  0  0
 30 49  1  0  0  0  0
 30 50  1  0  0  0  0
 31 32  1  0  0  0  0
 31 51  1  0  0  0  0
 32 52  1  0  0  0  0
M  END
$$$$
