
 OpenBabel07142516023D

 53 55  0  0  0  0  0  0  0  0999 V2000
    1.0304    0.0642    0.0910 C   0  0  0  0  0  0  0  0  0  0  0  0
    2.5264    0.0076    0.0264 C   0  0  0  0  0  0  0  0  0  0  0  0
    3.3954    1.0878    0.0213 C   0  0  0  0  0  0  0  0  0  0  0  0
    3.0431    2.5484    0.0318 C   0  0  0  0  0  0  0  0  0  0  0  0
    2.8457    3.1691    1.4108 C   0  0  0  0  0  0  0  0  0  0  0  0
    2.5152    4.3516    1.5265 O   0  0  0  0  0  0  0  0  0  0  0  0
    3.0608    2.3713    2.5138 N   0  0  0  0  0  0  0  0  0  0  0  0
    2.9692    2.8866    3.8695 C   0  0  0  0  0  0  0  0  0  0  0  0
    1.5523    2.7758    4.4292 C   0  0  0  0  0  0  0  0  0  0  0  0
    1.1676    1.4039    4.5158 O   0  0  0  0  0  0  0  0  0  0  0  0
    4.7069    0.5597    0.0325 C   0  0  0  0  0  0  0  0  0  0  0  0
    4.6467   -0.8244    0.0539 C   0  0  0  0  0  0  0  0  0  0  0  0
    5.8098   -1.7478    0.0021 C   0  0  0  0  0  0  0  0  0  0  0  0
    7.0073   -1.4267    0.6655 C   0  0  0  0  0  0  0  0  0  0  0  0
    8.0805   -2.3290    0.7000 C   0  0  0  0  0  0  0  0  0  0  0  0
    7.9384   -3.5853    0.1082 C   0  0  0  0  0  0  0  0  0  0  0  0
    6.7830   -3.9059   -0.5957 C   0  0  0  0  0  0  0  0  0  0  0  0
    5.7591   -2.9647   -0.6964 C   0  0  0  0  0  0  0  0  0  0  0  0
    9.2674   -4.7625    0.1695 S   0  0  0  0  0  0  0  0  0  0  0  0
    8.9484   -5.6739    1.6590 C   0  0  0  0  0  0  0  0  0  0  0  0
    9.0951   -5.6697   -0.9512 O   0  0  0  0  0  0  0  0  0  0  0  0
   10.4960   -4.0219    0.3457 O   0  0  0  0  0  0  0  0  0  0  0  0
    3.2778   -1.1749    0.0717 N   0  0  0  0  0  0  0  0  0  0  0  0
    2.7351   -2.5054    0.1251 C   0  0  0  0  0  0  0  0  0  0  0  0
    3.3519   -3.4939    0.9089 C   0  0  0  0  0  0  0  0  0  0  0  0
    2.9769   -4.8336    0.7743 C   0  0  0  0  0  0  0  0  0  0  0  0
    1.9249   -5.1707   -0.0660 C   0  0  0  0  0  0  0  0  0  0  0  0
    1.5801   -6.4564   -0.2107 F   0  0  0  0  0  0  0  0  0  0  0  0
    1.2444   -4.1935   -0.7780 C   0  0  0  0  0  0  0  0  0  0  0  0
    1.6610   -2.8649   -0.7024 C   0  0  0  0  0  0  0  0  0  0  0  0
    0.6793    1.0851    0.2642 H   0  0  0  0  0  0  0  0  0  0  0  0
    0.6481   -0.5480    0.9112 H   0  0  0  0  0  0  0  0  0  0  0  0
    0.5785   -0.2514   -0.8535 H   0  0  0  0  0  0  0  0  0  0  0  0
    2.1205    2.7116   -0.5383 H   0  0  0  0  0  0  0  0  0  0  0  0
    3.8368    3.1161   -0.4712 H   0  0  0  0  0  0  0  0  0  0  0  0
    3.2884    1.3919    2.3865 H   0  0  0  0  0  0  0  0  0  0  0  0
    3.2982    3.9302    3.8848 H   0  0  0  0  0  0  0  0  0  0  0  0
    3.6621    2.2895    4.4727 H   0  0  0  0  0  0  0  0  0  0  0  0
    0.8249    3.2996    3.8013 H   0  0  0  0  0  0  0  0  0  0  0  0
    1.5103    3.1995    5.4368 H   0  0  0  0  0  0  0  0  0  0  0  0
    1.1922    1.0603    3.6062 H   0  0  0  0  0  0  0  0  0  0  0  0
    5.6209    1.1428    0.0079 H   0  0  0  0  0  0  0  0  0  0  0  0
    7.1231   -0.4678    1.1663 H   0  0  0  0  0  0  0  0  0  0  0  0
    9.0078   -2.0453    1.1931 H   0  0  0  0  0  0  0  0  0  0  0  0
    6.6635   -4.8763   -1.0736 H   0  0  0  0  0  0  0  0  0  0  0  0
    4.8899   -3.2263   -1.2952 H   0  0  0  0  0  0  0  0  0  0  0  0
    7.9758   -6.1607    1.5820 H   0  0  0  0  0  0  0  0  0  0  0  0
    8.9762   -4.9891    2.5080 H   0  0  0  0  0  0  0  0  0  0  0  0
    9.7326   -6.4274    1.7651 H   0  0  0  0  0  0  0  0  0  0  0  0
    4.1696   -3.2513    1.5831 H   0  0  0  0  0  0  0  0  0  0  0  0
    3.5191   -5.6163    1.2969 H   0  0  0  0  0  0  0  0  0  0  0  0
    0.4221   -4.4794   -1.4305 H   0  0  0  0  0  0  0  0  0  0  0  0
    1.1833   -2.1524   -1.3668 H   0  0  0  0  0  0  0  0  0  0  0  0
  1  2  1  0  0  0  0
  1 31  1  0  0  0  0
  1 32  1  0  0  0  0
  1 33  1  0  0  0  0
  2  3  2  0  0  0  0
  2 23  1  0  0  0  0
  3  4  1  0  0  0  0
  3 11  1  0  0  0  0
  4  5  1  0  0  0  0
  4 34  1  0  0  0  0
  4 35  1  0  0  0  0
  5  6  2  0  0  0  0
  5  7  1  0  0  0  0
  7  8  1  0  0  0  0
  7 36  1  0  0  0  0
  8  9  1  0  0  0  0
  8 37  1  0  0  0  0
  8 38  1  0  0  0  0
  9 10  1  0  0  0  0
  9 39  1  0  0  0  0
  9 40  1  0  0  0  0
 10 41  1  0  0  0  0
 11 12  2  0  0  0  0
 11 42  1  0  0  0  0
 12 13  1  0  0  0  0
 12 23  1  0  0  0  0
 13 14  1  0  0  0  0
 13 18  2  0  0  0  0
 14 15  2  0  0  0  0
 14 43  1  0  0  0  0
 15 16  1  0  0  0  0
 15 44  1  0  0  0  0
 16 17  2  0  0  0  0
 16 19  1  0  0  0  0
 17 18  1  0  0  0  0
 17 45  1  0  0  0  0
 18 46  1  0  0  0  0
 19 20  1  0  0  0  0
 19 21  2  0  0  0  0
 19 22  2  0  0  0  0
 20 47  1  0  0  0  0
 20 48  1  0  0  0  0
 20 49  1  0  0  0  0
 23 24  1  0  0  0  0
 24 25  1  0  0  0  0
 24 30  2  0  0  0  0
 25 26  2  0  0  0  0
 25 50  1  0  0  0  0
 26 27  1  0  0  0  0
 26 51  1  0  0  0  0
 27 28  1  0  0  0  0
 27 29  2  0  0  0  0
 29 30  1  0  0  0  0
 29 52  1  0  0  0  0
 30 53  1  0  0  0  0
M  END
$$$$
