
 OpenBabel07142516143D

 38 40  0  0  0  0  0  0  0  0999 V2000
    1.4225    0.7459    0.7215 C   0  0  0  0  0  0  0  0  0  0  0  0
    2.7886   -0.1154   -0.0180 S   0  0  0  0  0  0  0  0  0  0  0  0
    2.3014   -0.8153   -1.1928 O   0  0  0  0  0  0  0  0  0  0  0  0
    3.9080    0.7990   -0.1020 O   0  0  0  0  0  0  0  0  0  0  0  0
    3.1772   -1.3365    1.2135 C   0  0  0  0  0  0  0  0  0  0  0  0
    2.5557   -2.5861    1.1627 C   0  0  0  0  0  0  0  0  0  0  0  0
    2.8246   -3.5302    2.1572 C   0  0  0  0  0  0  0  0  0  0  0  0
    3.7276   -3.2344    3.1873 C   0  0  0  0  0  0  0  0  0  0  0  0
    4.3602   -1.9839    3.2118 C   0  0  0  0  0  0  0  0  0  0  0  0
    4.0935   -1.0349    2.2230 C   0  0  0  0  0  0  0  0  0  0  0  0
    4.0686   -4.2409    4.1937 C   0  0  0  0  0  0  0  0  0  0  0  0
    5.0766   -5.1214    4.0875 C   0  0  0  0  0  0  0  0  0  0  0  0
    5.0563   -5.8942    5.3507 C   0  0  0  0  0  0  0  0  0  0  0  0
    5.8827   -6.7429    5.6444 O   0  0  0  0  0  0  0  0  0  0  0  0
    3.8849   -5.5201    6.2101 C   0  0  0  0  0  0  0  0  0  0  0  0
    3.3051   -4.3118    5.4843 C   0  0  0  0  0  0  0  0  0  0  0  0
    6.0417   -5.3060    3.0093 C   0  0  0  0  0  0  0  0  0  0  0  0
    7.2527   -4.5996    3.0197 C   0  0  0  0  0  0  0  0  0  0  0  0
    8.1774   -4.7691    1.9863 C   0  0  0  0  0  0  0  0  0  0  0  0
    7.8936   -5.6449    0.9427 C   0  0  0  0  0  0  0  0  0  0  0  0
    8.7935   -5.7897   -0.0399 F   0  0  0  0  0  0  0  0  0  0  0  0
    6.6926   -6.3513    0.9211 C   0  0  0  0  0  0  0  0  0  0  0  0
    6.3335   -7.4327   -0.3700 Cl  0  0  0  0  0  0  0  0  0  0  0  0
    5.7633   -6.1817    1.9509 C   0  0  0  0  0  0  0  0  0  0  0  0
    1.1129    1.5428    0.0429 H   0  0  0  0  0  0  0  0  0  0  0  0
    1.7484    1.1724    1.6723 H   0  0  0  0  0  0  0  0  0  0  0  0
    0.6005    0.0444    0.8744 H   0  0  0  0  0  0  0  0  0  0  0  0
    1.8710   -2.8336    0.3528 H   0  0  0  0  0  0  0  0  0  0  0  0
    2.3336   -4.4990    2.1096 H   0  0  0  0  0  0  0  0  0  0  0  0
    5.0793   -1.7453    3.9929 H   0  0  0  0  0  0  0  0  0  0  0  0
    4.6085   -0.0753    2.2433 H   0  0  0  0  0  0  0  0  0  0  0  0
    4.2119   -5.2675    7.2222 H   0  0  0  0  0  0  0  0  0  0  0  0
    3.1747   -6.3522    6.2379 H   0  0  0  0  0  0  0  0  0  0  0  0
    3.4588   -3.4027    6.0782 H   0  0  0  0  0  0  0  0  0  0  0  0
    2.2299   -4.4374    5.3260 H   0  0  0  0  0  0  0  0  0  0  0  0
    7.4863   -3.9146    3.8321 H   0  0  0  0  0  0  0  0  0  0  0  0
    9.1168   -4.2246    1.9871 H   0  0  0  0  0  0  0  0  0  0  0  0
    4.8289   -6.7351    1.9255 H   0  0  0  0  0  0  0  0  0  0  0  0
  1  2  1  0  0  0  0
  1 25  1  0  0  0  0
  1 26  1  0  0  0  0
  1 27  1  0  0  0  0
  2  3  2  0  0  0  0
  2  4  2  0  0  0  0
  2  5  1  0  0  0  0
  5  6  1  0  0  0  0
  5 10  2  0  0  0  0
  6  7  2  0  0  0  0
  6 28  1  0  0  0  0
  7  8  1  0  0  0  0
  7 29  1  0  0  0  0
  8  9  2  0  0  0  0
  8 11  1  0  0  0  0
  9 10  1  0  0  0  0
  9 30  1  0  0  0  0
 10 31  1  0  0  0  0
 11 12  2  0  0  0  0
 11 16  1  0  0  0  0
 12 13  1  0  0  0  0
 12 17  1  0  0  0  0
 13 14  2  0  0  0  0
 13 15  1  0  0  0  0
 15 16  1  0  0  0  0
 15 32  1  0  0  0  0
 15 33  1  0  0  0  0
 16 34  1  0  0  0  0
 16 35  1  0  0  0  0
 17 18  1  0  0  0  0
 17 24  2  0  0  0  0
 18 19  2  0  0  0  0
 18 36  1  0  0  0  0
 19 20  1  0  0  0  0
 19 37  1  0  0  0  0
 20 21  1  0  0  0  0
 20 22  2  0  0  0  0
 22 23  1  0  0  0  0
 22 24  1  0  0  0  0
 24 38  1  0  0  0  0
M  END
$$$$
