
 OpenBabel07142517233D

 41 43  0  0  0  0  0  0  0  0999 V2000
    1.4420    0.6420    0.7313 C   0  0  0  0  0  0  0  0  0  0  0  0
    2.5186   -0.0572    0.1137 O   0  0  0  0  0  0  0  0  0  0  0  0
    3.1206    0.5936   -0.9275 C   0  0  0  0  0  0  0  0  0  0  0  0
    3.7235   -0.2346   -1.8732 C   0  0  0  0  0  0  0  0  0  0  0  0
    4.3690    0.3126   -2.9886 C   0  0  0  0  0  0  0  0  0  0  0  0
    4.3677    1.6979   -3.2139 C   0  0  0  0  0  0  0  0  0  0  0  0
    3.8138    2.5215   -2.2292 C   0  0  0  0  0  0  0  0  0  0  0  0
    3.2096    1.9744   -1.0991 C   0  0  0  0  0  0  0  0  0  0  0  0
    2.7221    2.8289   -0.1887 F   0  0  0  0  0  0  0  0  0  0  0  0
    4.9129    2.3042   -4.4381 C   0  0  0  0  0  0  0  0  0  0  0  0
    5.5598    3.5218   -4.5684 C   0  0  0  0  0  0  0  0  0  0  0  0
    5.9644    3.6253   -5.9175 C   0  0  0  0  0  0  0  0  0  0  0  0
    5.6540    2.5014   -6.5880 N   0  0  0  0  0  0  0  0  0  0  0  0
    4.8776    1.7800   -5.7342 N   0  0  0  0  0  0  0  0  0  0  0  0
    4.1537    0.6598   -6.2345 C   0  0  0  0  0  0  0  0  0  0  0  0
    4.6926   -0.0936   -7.2882 C   0  0  0  0  0  0  0  0  0  0  0  0
    4.0548   -1.2665   -7.7009 C   0  0  0  0  0  0  0  0  0  0  0  0
    2.8728   -1.6718   -7.0731 C   0  0  0  0  0  0  0  0  0  0  0  0
    2.2906   -0.8870   -6.0762 C   0  0  0  0  0  0  0  0  0  0  0  0
    2.9235    0.2865   -5.6716 C   0  0  0  0  0  0  0  0  0  0  0  0
    2.0805   -3.1713   -7.5672 S   0  0  0  0  0  0  0  0  0  0  0  0
    2.8256   -4.2950   -6.5686 N   0  0  0  0  0  0  0  0  0  0  0  0
    0.6927   -3.1384   -7.1578 O   0  0  0  0  0  0  0  0  0  0  0  0
    2.4808   -3.5058   -8.9130 O   0  0  0  0  0  0  0  0  0  0  0  0
    6.6548    4.8049   -6.5497 C   0  0  0  0  0  0  0  0  0  0  0  0
    6.8473    5.8105   -5.6499 F   0  0  0  0  0  0  0  0  0  0  0  0
    7.8800    4.4956   -7.0473 F   0  0  0  0  0  0  0  0  0  0  0  0
    5.9298    5.3412   -7.5665 F   0  0  0  0  0  0  0  0  0  0  0  0
    0.9707   -0.0381    1.4466 H   0  0  0  0  0  0  0  0  0  0  0  0
    0.6856    0.9306   -0.0073 H   0  0  0  0  0  0  0  0  0  0  0  0
    1.7956    1.5067    1.2989 H   0  0  0  0  0  0  0  0  0  0  0  0
    3.6738   -1.3153   -1.7567 H   0  0  0  0  0  0  0  0  0  0  0  0
    4.8313   -0.3726   -3.6966 H   0  0  0  0  0  0  0  0  0  0  0  0
    3.8241    3.6039   -2.3237 H   0  0  0  0  0  0  0  0  0  0  0  0
    5.7367    4.2480   -3.7849 H   0  0  0  0  0  0  0  0  0  0  0  0
    5.6322    0.1940   -7.7578 H   0  0  0  0  0  0  0  0  0  0  0  0
    4.4952   -1.8679   -8.4938 H   0  0  0  0  0  0  0  0  0  0  0  0
    1.3576   -1.1850   -5.6019 H   0  0  0  0  0  0  0  0  0  0  0  0
    2.4364    0.8972   -4.9144 H   0  0  0  0  0  0  0  0  0  0  0  0
    2.1318   -4.7289   -5.9531 H   0  0  0  0  0  0  0  0  0  0  0  0
    3.3479   -4.9652   -7.1326 H   0  0  0  0  0  0  0  0  0  0  0  0
  1  2  1  0  0  0  0
  1 29  1  0  0  0  0
  1 30  1  0  0  0  0
  1 31  1  0  0  0  0
  2  3  1  0  0  0  0
  3  4  1  0  0  0  0
  3  8  2  0  0  0  0
  4  5  2  0  0  0  0
  4 32  1  0  0  0  0
  5  6  1  0  0  0  0
  5 33  1  0  0  0  0
  6  7  2  0  0  0  0
  6 10  1  0  0  0  0
  7  8  1  0  0  0  0
  7 34  1  0  0  0  0
  8  9  1  0  0  0  0
 10 11  2  0  0  0  0
 10 14  1  0  0  0  0
 11 12  1  0  0  0  0
 11 35  1  0  0  0  0
 12 13  2  0  0  0  0
 12 25  1  0  0  0  0
 13 14  1  0  0  0  0
 14 15  1  0  0  0  0
 15 16  1  0  0  0  0
 15 20  2  0  0  0  0
 16 17  2  0  0  0  0
 16 36  1  0  0  0  0
 17 18  1  0  0  0  0
 17 37  1  0  0  0  0
 18 19  2  0  0  0  0
 18 21  1  0  0  0  0
 19 20  1  0  0  0  0
 19 38  1  0  0  0  0
 20 39  1  0  0  0  0
 21 22  1  0  0  0  0
 21 23  2  0  0  0  0
 21 24  2  0  0  0  0
 22 40  1  0  0  0  0
 22 41  1  0  0  0  0
 25 26  1  0  0  0  0
 25 27  1  0  0  0  0
 25 28  1  0  0  0  0
M  END
$$$$
