
 OpenBabel07142516183D

 50 54  0  0  1  0  0  0  0  0999 V2000
    4.9405    1.2688   -0.3488 N   0  0  0  0  0  0  0  0  0  0  0  0
    3.3664    0.8049   -0.6984 S   0  0  0  0  0  0  0  0  0  0  0  0
    2.7490    0.4130    0.5361 O   0  0  0  0  0  0  0  0  0  0  0  0
    2.8455    1.8636   -1.5413 O   0  0  0  0  0  0  0  0  0  0  0  0
    3.6642   -0.6471   -1.6635 C   0  0  0  0  0  0  0  0  0  0  0  0
    4.3154   -1.7501   -1.0971 C   0  0  0  0  0  0  0  0  0  0  0  0
    4.6645   -2.8485   -1.9091 C   0  0  0  0  0  0  0  0  0  0  0  0
    4.3649   -2.8599   -3.2808 C   0  0  0  0  0  0  0  0  0  0  0  0
    3.6577   -1.7557   -3.7927 C   0  0  0  0  0  0  0  0  0  0  0  0
    3.3124   -0.6553   -3.0027 C   0  0  0  0  0  0  0  0  0  0  0  0
    4.7138   -3.9239   -4.1628 N   0  0  0  0  0  0  0  0  0  0  0  0
    5.0439   -5.1698   -3.5781 N   0  0  0  0  0  0  0  0  0  0  0  0
    5.8737   -5.7618   -4.3973 C   0  0  0  0  0  0  0  0  0  0  0  0
    6.2442   -4.9751   -5.6320 C   0  0  3  0  0  0  0  0  0  0  0  0
    6.0084   -5.9303   -6.8036 C   0  0  0  0  0  0  0  0  0  0  0  0
    7.2937   -6.8102   -6.6773 C   0  0  0  0  0  0  0  0  0  0  0  0
    7.1862   -7.6148   -5.3956 C   0  0  0  0  0  0  0  0  0  0  0  0
    7.7830   -8.8731   -5.3297 C   0  0  0  0  0  0  0  0  0  0  0  0
    7.5928   -9.6664   -4.2027 C   0  0  0  0  0  0  0  0  0  0  0  0
    6.8373   -9.1947   -3.1232 C   0  0  0  0  0  0  0  0  0  0  0  0
    6.2775   -7.9128   -3.1512 C   0  0  0  0  0  0  0  0  0  0  0  0
    6.4595   -7.1192   -4.2801 C   0  0  0  0  0  0  0  0  0  0  0  0
    5.8032   -3.6285   -5.1106 C   0  0  3  0  0  0  0  0  0  0  0  0
    5.8699   -2.4436   -6.0371 C   0  0  0  0  0  0  0  0  0  0  0  0
    4.8808   -2.1268   -6.9650 C   0  0  0  0  0  0  0  0  0  0  0  0
    5.0234   -0.9958   -7.7801 C   0  0  0  0  0  0  0  0  0  0  0  0
    6.1640   -0.1937   -7.6952 C   0  0  0  0  0  0  0  0  0  0  0  0
    6.3271    1.1917   -8.7013 Cl  0  0  0  0  0  0  0  0  0  0  0  0
    7.1739   -0.5024   -6.7961 C   0  0  0  0  0  0  0  0  0  0  0  0
    7.0273   -1.6205   -5.9770 C   0  0  0  0  0  0  0  0  0  0  0  0
    5.0663    1.3868    0.6535 H   0  0  0  0  0  0  0  0  0  0  0  0
    5.2138    2.0647   -0.9183 H   0  0  0  0  0  0  0  0  0  0  0  0
    4.5684   -1.7524   -0.0371 H   0  0  0  0  0  0  0  0  0  0  0  0
    5.1863   -3.6850   -1.4537 H   0  0  0  0  0  0  0  0  0  0  0  0
    3.3465   -1.7433   -4.8290 H   0  0  0  0  0  0  0  0  0  0  0  0
    2.7913    0.1875   -3.4493 H   0  0  0  0  0  0  0  0  0  0  0  0
    7.3075   -4.7563   -5.7149 H   0  0  0  0  0  0  0  0  0  0  0  0
    5.9547   -5.4651   -7.7903 H   0  0  0  0  0  0  0  0  0  0  0  0
    5.1332   -6.6022   -6.7067 H   0  0  0  0  0  0  0  0  0  0  0  0
    8.1946   -6.1809   -6.5861 H   0  0  0  0  0  0  0  0  0  0  0  0
    7.4731   -7.4381   -7.5523 H   0  0  0  0  0  0  0  0  0  0  0  0
    8.3652   -9.2488   -6.1693 H   0  0  0  0  0  0  0  0  0  0  0  0
    8.0115  -10.6693   -4.1826 H   0  0  0  0  0  0  0  0  0  0  0  0
    6.6869   -9.8369   -2.2594 H   0  0  0  0  0  0  0  0  0  0  0  0
    5.6972   -7.5517   -2.3057 H   0  0  0  0  0  0  0  0  0  0  0  0
    6.6295   -3.3963   -4.4129 H   0  0  0  0  0  0  0  0  0  0  0  0
    3.9751   -2.7243   -7.0304 H   0  0  0  0  0  0  0  0  0  0  0  0
    4.2297   -0.7361   -8.4749 H   0  0  0  0  0  0  0  0  0  0  0  0
    8.0633    0.1207   -6.7259 H   0  0  0  0  0  0  0  0  0  0  0  0
    7.8329   -1.8406   -5.2734 H   0  0  0  0  0  0  0  0  0  0  0  0
  1  2  1  0  0  0  0
  1 31  1  0  0  0  0
  1 32  1  0  0  0  0
  2  3  2  0  0  0  0
  2  4  2  0  0  0  0
  2  5  1  0  0  0  0
  5  6  1  0  0  0  0
  5 10  2  0  0  0  0
  6  7  2  0  0  0  0
  6 33  1  0  0  0  0
  7  8  1  0  0  0  0
  7 34  1  0  0  0  0
  8  9  2  0  0  0  0
  8 11  1  0  0  0  0
  9 10  1  0  0  0  0
  9 35  1  0  0  0  0
 10 36  1  0  0  0  0
 11 12  1  0  0  0  0
 11 23  1  0  0  0  0
 12 13  2  0  0  0  0
 13 14  1  0  0  0  0
 13 22  1  0  0  0  0
 14 15  1  0  0  0  0
 14 23  1  0  0  0  0
 14 37  1  0  0  0  0
 15 16  1  0  0  0  0
 15 38  1  0  0  0  0
 15 39  1  0  0  0  0
 16 17  1  0  0  0  0
 16 40  1  0  0  0  0
 16 41  1  0  0  0  0
 17 18  1  0  0  0  0
 17 22  2  0  0  0  0
 18 19  2  0  0  0  0
 18 42  1  0  0  0  0
 19 20  1  0  0  0  0
 19 43  1  0  0  0  0
 20 21  2  0  0  0  0
 20 44  1  0  0  0  0
 21 22  1  0  0  0  0
 21 45  1  0  0  0  0
 23 24  1  0  0  0  0
 23 46  1  0  0  0  0
 24 25  1  0  0  0  0
 24 30  2  0  0  0  0
 25 26  2  0  0  0  0
 25 47  1  0  0  0  0
 26 27  1  0  0  0  0
 26 48  1  0  0  0  0
 27 28  1  0  0  0  0
 27 29  2  0  0  0  0
 29 30  1  0  0  0  0
 29 49  1  0  0  0  0
 30 50  1  0  0  0  0
M  END
$$$$
