
 OpenBabel07142516453D

 51 54  0  0  0  0  0  0  0  0999 V2000
    0.8356    0.0760    0.0886 C   0  0  0  0  0  0  0  0  0  0  0  0
    2.3352    0.0814    0.0348 C   0  0  0  0  0  0  0  0  0  0  0  0
    3.1769    1.1912    0.0626 C   0  0  0  0  0  0  0  0  0  0  0  0
    4.5012    0.6803    0.0766 C   0  0  0  0  0  0  0  0  0  0  0  0
    4.4740   -0.7063    0.0539 C   0  0  0  0  0  0  0  0  0  0  0  0
    5.6508   -1.6094   -0.0089 C   0  0  0  0  0  0  0  0  0  0  0  0
    6.8339   -1.2896    0.6803 C   0  0  0  0  0  0  0  0  0  0  0  0
    7.9285   -2.1699    0.6871 C   0  0  0  0  0  0  0  0  0  0  0  0
    7.8256   -3.3974    0.0348 C   0  0  0  0  0  0  0  0  0  0  0  0
    6.6811   -3.7168   -0.6898 C   0  0  0  0  0  0  0  0  0  0  0  0
    5.6256   -2.8031   -0.7460 C   0  0  0  0  0  0  0  0  0  0  0  0
    9.1800   -4.5464    0.0539 S   0  0  0  0  0  0  0  0  0  0  0  0
    8.8549   -5.5522    1.4787 C   0  0  0  0  0  0  0  0  0  0  0  0
    9.0653   -5.3798   -1.1246 O   0  0  0  0  0  0  0  0  0  0  0  0
   10.3895   -3.7821    0.3091 O   0  0  0  0  0  0  0  0  0  0  0  0
    3.1157   -1.0842    0.0646 N   0  0  0  0  0  0  0  0  0  0  0  0
    2.5979   -2.4221    0.1527 C   0  0  0  0  0  0  0  0  0  0  0  0
    1.4857   -2.8116   -0.6090 C   0  0  0  0  0  0  0  0  0  0  0  0
    0.9876   -4.1155   -0.5333 C   0  0  0  0  0  0  0  0  0  0  0  0
    1.6358   -5.0601    0.2553 C   0  0  0  0  0  0  0  0  0  0  0  0
    2.7564   -4.6851    0.9847 C   0  0  0  0  0  0  0  0  0  0  0  0
    3.4136   -5.6070    1.7004 F   0  0  0  0  0  0  0  0  0  0  0  0
    3.2207   -3.3732    0.9712 C   0  0  0  0  0  0  0  0  0  0  0  0
    2.7417    2.5894    0.1460 C   0  0  0  0  0  0  0  0  0  0  0  0
    1.6993    2.9245    0.7009 O   0  0  0  0  0  0  0  0  0  0  0  0
    3.5867    3.6719   -0.4303 C   0  0  0  0  0  0  0  0  0  0  0  0
    3.5478    4.9339    0.1813 C   0  0  0  0  0  0  0  0  0  0  0  0
    4.2820    5.9952   -0.3458 C   0  0  0  0  0  0  0  0  0  0  0  0
    5.0523    5.8036   -1.4921 C   0  0  0  0  0  0  0  0  0  0  0  0
    5.0842    4.5555   -2.1148 C   0  0  0  0  0  0  0  0  0  0  0  0
    4.3471    3.4900   -1.5917 C   0  0  0  0  0  0  0  0  0  0  0  0
    0.4111    1.0668    0.2520 H   0  0  0  0  0  0  0  0  0  0  0  0
    0.4766   -0.5577    0.9052 H   0  0  0  0  0  0  0  0  0  0  0  0
    0.4098   -0.2593   -0.8600 H   0  0  0  0  0  0  0  0  0  0  0  0
    5.4078    1.2761    0.1038 H   0  0  0  0  0  0  0  0  0  0  0  0
    6.9213   -0.3540    1.2299 H   0  0  0  0  0  0  0  0  0  0  0  0
    8.8431   -1.8874    1.2076 H   0  0  0  0  0  0  0  0  0  0  0  0
    6.5935   -4.6670   -1.2119 H   0  0  0  0  0  0  0  0  0  0  0  0
    4.7590   -3.0697   -1.3464 H   0  0  0  0  0  0  0  0  0  0  0  0
    7.9005   -6.0637    1.3424 H   0  0  0  0  0  0  0  0  0  0  0  0
    8.8367   -4.9211    2.3702 H   0  0  0  0  0  0  0  0  0  0  0  0
    9.6554   -6.2905    1.5622 H   0  0  0  0  0  0  0  0  0  0  0  0
    1.0141   -2.1396   -1.3179 H   0  0  0  0  0  0  0  0  0  0  0  0
    0.1089   -4.3941   -1.1106 H   0  0  0  0  0  0  0  0  0  0  0  0
    1.2820   -6.0848    0.2980 H   0  0  0  0  0  0  0  0  0  0  0  0
    4.0765   -3.1295    1.5925 H   0  0  0  0  0  0  0  0  0  0  0  0
    2.9349    5.0946    1.0670 H   0  0  0  0  0  0  0  0  0  0  0  0
    4.2433    6.9715    0.1302 H   0  0  0  0  0  0  0  0  0  0  0  0
    5.6193    6.6331   -1.9078 H   0  0  0  0  0  0  0  0  0  0  0  0
    5.6733    4.4164   -3.0182 H   0  0  0  0  0  0  0  0  0  0  0  0
    4.3568    2.5371   -2.1145 H   0  0  0  0  0  0  0  0  0  0  0  0
  1  2  1  0  0  0  0
  1 32  1  0  0  0  0
  1 33  1  0  0  0  0
  1 34  1  0  0  0  0
  2  3  2  0  0  0  0
  2 16  1  0  0  0  0
  3  4  1  0  0  0  0
  3 24  1  0  0  0  0
  4  5  2  0  0  0  0
  4 35  1  0  0  0  0
  5  6  1  0  0  0  0
  5 16  1  0  0  0  0
  6  7  1  0  0  0  0
  6 11  2  0  0  0  0
  7  8  2  0  0  0  0
  7 36  1  0  0  0  0
  8  9  1  0  0  0  0
  8 37  1  0  0  0  0
  9 10  2  0  0  0  0
  9 12  1  0  0  0  0
 10 11  1  0  0  0  0
 10 38  1  0  0  0  0
 11 39  1  0  0  0  0
 12 13  1  0  0  0  0
 12 14  2  0  0  0  0
 12 15  2  0  0  0  0
 13 40  1  0  0  0  0
 13 41  1  0  0  0  0
 13 42  1  0  0  0  0
 16 17  1  0  0  0  0
 17 18  1  0  0  0  0
 17 23  2  0  0  0  0
 18 19  2  0  0  0  0
 18 43  1  0  0  0  0
 19 20  1  0  0  0  0
 19 44  1  0  0  0  0
 20 21  2  0  0  0  0
 20 45  1  0  0  0  0
 21 22  1  0  0  0  0
 21 23  1  0  0  0  0
 23 46  1  0  0  0  0
 24 25  2  0  0  0  0
 24 26  1  0  0  0  0
 26 27  1  0  0  0  0
 26 31  2  0  0  0  0
 27 28  2  0  0  0  0
 27 47  1  0  0  0  0
 28 29  1  0  0  0  0
 28 48  1  0  0  0  0
 29 30  2  0  0  0  0
 29 49  1  0  0  0  0
 30 31  1  0  0  0  0
 30 50  1  0  0  0  0
 31 51  1  0  0  0  0
M  END
$$$$
