
 OpenBabel07142516343D

 43 46  0  0  1  0  0  0  0  0999 V2000
    1.4610   -0.0011    1.2420 N   0  0  0  0  0  0  0  0  0  0  0  0
    2.4811    0.0746   -0.0985 S   0  0  0  0  0  0  0  0  0  0  0  0
    1.6627    0.3202   -1.2493 O   0  0  0  0  0  0  0  0  0  0  0  0
    3.5555    0.9689    0.3206 O   0  0  0  0  0  0  0  0  0  0  0  0
    3.1696   -1.5348   -0.2383 C   0  0  0  0  0  0  0  0  0  0  0  0
    2.5420   -2.5240   -1.0070 C   0  0  0  0  0  0  0  0  0  0  0  0
    3.0603   -3.8002   -1.0094 C   0  0  0  0  0  0  0  0  0  0  0  0
    4.2308   -4.0436   -0.3058 C   0  0  0  0  0  0  0  0  0  0  0  0
    4.8475   -3.0641    0.4821 C   0  0  0  0  0  0  0  0  0  0  0  0
    4.3122   -1.7962    0.5237 C   0  0  0  0  0  0  0  0  0  0  0  0
    4.7042   -5.3212   -0.2395 N   0  0  0  0  0  0  0  0  0  0  0  0
    4.4920   -6.2214   -1.2321 N   0  0  0  0  0  0  0  0  0  0  0  0
    4.9210   -7.3810   -0.8305 C   0  0  0  0  0  0  0  0  0  0  0  0
    5.3517   -7.3729    0.6602 C   0  0  0  0  0  0  0  0  0  0  0  0
    5.0118   -5.7845    1.0809 C   0  0  3  0  0  0  0  0  0  0  0  0
    4.3974   -4.9467    2.5885 C   0  0  0  0  0  0  0  0  0  0  0  0
    3.6001   -5.9085    3.1844 C   0  0  0  0  0  0  0  0  0  0  0  0
    2.6717   -4.9562    3.4457 N   0  0  0  0  0  0  0  0  0  0  0  0
    3.2474   -4.3153    4.5060 C   0  0  0  0  0  0  0  0  0  0  0  0
    2.3937   -3.9573    5.6245 C   0  0  0  0  0  0  0  0  0  0  0  0
    2.8202   -3.3932    6.7850 C   0  0  0  0  0  0  0  0  0  0  0  0
    1.7043   -2.9603    8.0213 Cl  0  0  0  0  0  0  0  0  0  0  0  0
    4.1615   -3.2470    6.8169 C   0  0  0  0  0  0  0  0  0  0  0  0
    4.9720   -3.5740    5.5685 C   0  0  0  0  0  0  0  0  0  0  0  0
    4.7251   -4.2180    4.1574 C   0  0  0  0  0  0  0  0  0  0  0  0
    5.0188   -8.5751   -1.8155 C   0  0  0  0  0  0  0  0  0  0  0  0
    5.5496   -9.6920   -1.2332 F   0  0  0  0  0  0  0  0  0  0  0  0
    3.7983   -8.9756   -2.2966 F   0  0  0  0  0  0  0  0  0  0  0  0
    5.7775   -8.3414   -2.9246 F   0  0  0  0  0  0  0  0  0  0  0  0
    0.9351    0.8751    1.2753 H   0  0  0  0  0  0  0  0  0  0  0  0
    1.9796   -0.1462    2.1090 H   0  0  0  0  0  0  0  0  0  0  0  0
    1.6451   -2.3374   -1.5807 H   0  0  0  0  0  0  0  0  0  0  0  0
    2.5414   -4.6331   -1.4824 H   0  0  0  0  0  0  0  0  0  0  0  0
    5.7048   -3.3271    1.1001 H   0  0  0  0  0  0  0  0  0  0  0  0
    4.7516   -1.0430    1.1728 H   0  0  0  0  0  0  0  0  0  0  0  0
    6.4447   -7.5650    0.5754 H   0  0  0  0  0  0  0  0  0  0  0  0
    4.8976   -8.2065    1.1984 H   0  0  0  0  0  0  0  0  0  0  0  0
    6.0689   -5.4942    1.2446 H   0  0  0  0  0  0  0  0  0  0  0  0
    4.0628   -6.5537    3.9446 H   0  0  0  0  0  0  0  0  0  0  0  0
    2.2410   -4.3392    2.7724 H   0  0  0  0  0  0  0  0  0  0  0  0
    1.3414   -4.2315    5.5559 H   0  0  0  0  0  0  0  0  0  0  0  0
    4.5959   -2.9056    7.7687 H   0  0  0  0  0  0  0  0  0  0  0  0
    6.0260   -3.3522    5.8211 H   0  0  0  0  0  0  0  0  0  0  0  0
  1  2  1  0  0  0  0
  1 30  1  0  0  0  0
  1 31  1  0  0  0  0
  2  3  2  0  0  0  0
  2  4  2  0  0  0  0
  2  5  1  0  0  0  0
  5  6  1  0  0  0  0
  5 10  2  0  0  0  0
  6  7  2  0  0  0  0
  6 32  1  0  0  0  0
  7  8  1  0  0  0  0
  7 33  1  0  0  0  0
  8  9  2  0  0  0  0
  8 11  1  0  0  0  0
  9 10  1  0  0  0  0
  9 34  1  0  0  0  0
 10 35  1  0  0  0  0
 11 12  1  0  0  0  0
 11 15  1  0  0  0  0
 12 13  2  0  0  0  0
 13 14  1  0  0  0  0
 13 26  1  0  0  0  0
 14 15  1  0  0  0  0
 14 36  1  0  0  0  0
 14 37  1  0  0  0  0
 15 16  1  0  0  0  0
 15 38  1  0  0  0  0
 16 17  2  0  0  0  0
 16 25  1  0  0  0  0
 17 18  1  0  0  0  0
 17 39  1  0  0  0  0
 18 19  1  0  0  0  0
 18 40  1  0  0  0  0
 19 20  1  0  0  0  0
 19 25  2  0  0  0  0
 20 21  2  0  0  0  0
 20 41  1  0  0  0  0
 21 22  1  0  0  0  0
 21 23  1  0  0  0  0
 23 24  2  0  0  0  0
 23 42  1  0  0  0  0
 24 25  1  0  0  0  0
 24 43  1  0  0  0  0
 26 27  1  0  0  0  0
 26 28  1  0  0  0  0
 26 29  1  0  0  0  0
M  END
$$$$
